################################################################################
##################################    Init    ##################################
################################################################################
units           real
atom_style      full
pair_style      lj/cut/coul/long 12.0  12.0
kspace_style    pppm 1e-4
bond_style      harmonic
angle_style     harmonic
dihedral_style  fourier
improper_style  cvff
special_bonds   amber
pair_modify     mix arithmetic
read_data       temp.lmps
  orthogonal box = (-179.014 -179.014 -179.014) to (179.014 179.014 179.014)
  reading atoms ...
  1680 atoms
  reading velocities ...
  1680 velocities
  scanning bonds ...
  scanning angles ...
  scanning dihedrals ...
  scanning impropers ...
  reading bonds ...
  1840 bonds
  reading angles ...
  3287 angles
  reading dihedrals ...
  5225 dihedrals
  reading impropers ...
  483 impropers
################################################################################

min_style cg
minimize 1e-05 1e-05 10000 100000
PPPM initialization ...
  G vector (1/distance) = 0.0791626
  grid = 24 24 24
  stencil order = 5
  estimated absolute RMS force accuracy = 0.0341934
  estimated relative force accuracy = 0.000102973
  3d grid and FFT values/proc = 3179 1152
  update every 1 steps, delay 0 steps, check yes
Step Temp E_pair E_mol TotEng Press
0    2006.3582    616.75503    2040.6465    12698.783    9.4774759
Loop time of 0.276115 on 16 procs for 8 steps with 1680 atoms

Minimization stats:
  Stopping criterion = linesearch alpha is zero
  Energy initial, next-to-last, final =
  Force two-norm initial, final = 106.845 74.8339
  Force max component initial, final = 11.4549 7.22247
  Final line search alpha, max atom move = 1.35983e-12 9.82136e-12
  Iterations, force evaluations = 8 79

timestep        1
fix             pysimm_md all nvt temp 300 300 100
run             5000
PPPM initialization ...
  G vector (1/distance) = 0.0791626
  grid = 24 24 24
  stencil order = 5
  estimated absolute RMS force accuracy = 0.0341934
  estimated relative force accuracy = 0.000102973
  3d grid and FFT values/proc = 3179 1152
Step Temp E_pair E_mol TotEng Press
8    2006.3582    610.82544     2020.185    12672.392    9.5703951
Loop time of 7.53462 on 16 procs for 5000 steps with 1680 atoms

unfix pysimm_md
write_dump all custom pysimm.dump.tmp id q x y z vx vy vz
quit

################################################################################
##################################    Init    ##################################
################################################################################
units           real
atom_style      full
pair_style      lj/cut/coul/long 12.0  12.0
kspace_style    pppm 1e-4
bond_style      harmonic
angle_style     harmonic
dihedral_style  fourier
improper_style  cvff
special_bonds   amber
pair_modify     mix arithmetic
read_data       temp.lmps
  orthogonal box = (-51.0402 -51.0402 -51.0402) to (51.0402 51.0402 51.0402)
  reading atoms ...
  240 atoms
  reading velocities ...
  240 velocities
  scanning bonds ...
  scanning angles ...
  scanning dihedrals ...
  scanning impropers ...
  reading bonds ...
  260 bonds
  reading angles ...
  465 angles
  reading dihedrals ...
  730 dihedrals
  reading impropers ...
  63 impropers
################################################################################

min_style cg
minimize 1e-05 1e-05 10000 100000
PPPM initialization ...
  G vector (1/distance) = 0.118661
  grid = 12 12 12
  stencil order = 5
  estimated absolute RMS force accuracy = 0.0283706
  estimated relative force accuracy = 8.54372e-05
  3d grid and FFT values/proc = 968 108
  update every 1 steps, delay 0 steps, check yes
Step Temp E_pair E_mol TotEng Press
0     1996.037    31.208969     278.2001     1731.413    55.769837
Loop time of 0.106034 on 16 procs for 29 steps with 240 atoms

Minimization stats:
  Stopping criterion = linesearch alpha is zero
  Energy initial, next-to-last, final =
  Force two-norm initial, final = 30.9236 18.8049
  Force max component initial, final = 5.17221 3.13635
  Final line search alpha, max atom move = 2.28655e-11 7.17143e-11
  Iterations, force evaluations = 29 113

timestep        1
fix             pysimm_md all nvt temp 300 300 100
run             5000
PPPM initialization ...
  G vector (1/distance) = 0.118661
  grid = 12 12 12
  stencil order = 5
  estimated absolute RMS force accuracy = 0.0283706
  estimated relative force accuracy = 8.54372e-05
  3d grid and FFT values/proc = 968 108
Step Temp E_pair E_mol TotEng Press
29     1996.037    33.687551    266.73405    1722.4255    61.602012
Loop time of 2.326 on 16 procs for 5000 steps with 240 atoms

unfix pysimm_md
write_dump all custom pysimm.dump.tmp id q x y z vx vy vz
quit

################################################################################
##################################    Init    ##################################
################################################################################
units           real
atom_style      full
pair_style      lj/cut/coul/long 12.0  12.0
kspace_style    pppm 1e-4
bond_style      harmonic
angle_style     harmonic
dihedral_style  fourier
improper_style  cvff
special_bonds   amber
pair_modify     mix arithmetic
read_data       temp.lmps
  orthogonal box = (-52.6878 -52.6878 -52.6878) to (52.6878 52.6878 52.6878)
  reading atoms ...
  426 atoms
  reading velocities ...
  426 velocities
  scanning bonds ...
  scanning angles ...
  scanning dihedrals ...
  scanning impropers ...
  reading bonds ...
  467 bonds
  reading angles ...
  828 angles
  reading dihedrals ...
  1316 dihedrals
  reading impropers ...
  126 impropers
################################################################################

min_style cg
minimize 1e-05 1e-05 10000 100000
PPPM initialization ...
  G vector (1/distance) = 0.116229
  grid = 12 12 12
  stencil order = 5
  estimated absolute RMS force accuracy = 0.0376314
  estimated relative force accuracy = 0.000113326
  3d grid and FFT values/proc = 968 108
  update every 1 steps, delay 0 steps, check yes
Step Temp E_pair E_mol TotEng Press
0    623.91828    237.22389    515.61142    1543.2426    39.242642
Loop time of 0.172202 on 16 procs for 72 steps with 426 atoms

Minimization stats:
  Stopping criterion = linesearch alpha is zero
  Energy initial, next-to-last, final =
  Force two-norm initial, final = 36.4217 28.401
  Force max component initial, final = 4.76495 4.30327
  Final line search alpha, max atom move = 1.24125e-11 5.34142e-11
  Iterations, force evaluations = 72 199

timestep        1
fix             pysimm_md all nvt temp 300 300 100
run             5000
PPPM initialization ...
  G vector (1/distance) = 0.116229
  grid = 12 12 12
  stencil order = 5
  estimated absolute RMS force accuracy = 0.0376314
  estimated relative force accuracy = 0.000113326
  3d grid and FFT values/proc = 968 108
Step Temp E_pair E_mol TotEng Press
72    623.91828    229.74032    481.21942     1501.367    29.572666
Loop time of 2.55493 on 16 procs for 5000 steps with 426 atoms

unfix pysimm_md
write_dump all custom pysimm.dump.tmp id q x y z vx vy vz
quit

################################################################################
##################################    Init    ##################################
################################################################################
units           real
atom_style      full
pair_style      lj/cut/coul/long 12.0  12.0
kspace_style    pppm 1e-4
bond_style      harmonic
angle_style     harmonic
dihedral_style  fourier
improper_style  cvff
special_bonds   amber
pair_modify     mix arithmetic
read_data       temp.lmps
  orthogonal box = (-54.2383 -54.2383 -54.2383) to (54.2383 54.2383 54.2383)
  reading atoms ...
  492 atoms
  reading velocities ...
  492 velocities
  scanning bonds ...
  scanning angles ...
  scanning dihedrals ...
  scanning impropers ...
  reading bonds ...
  540 bonds
  reading angles ...
  958 angles
  reading dihedrals ...
  1523 dihedrals
  reading impropers ...
  147 impropers
################################################################################

min_style cg
minimize 1e-05 1e-05 10000 100000
PPPM initialization ...
  G vector (1/distance) = 0.114027
  grid = 12 12 12
  stencil order = 5
  estimated absolute RMS force accuracy = 0.0415074
  estimated relative force accuracy = 0.000124998
  3d grid and FFT values/proc = 968 108
  update every 1 steps, delay 0 steps, check yes
Step Temp E_pair E_mol TotEng Press
0    1577.7322    234.10519    639.18673    3182.4256    85.205103
Loop time of 0.285568 on 16 procs for 81 steps with 492 atoms

Minimization stats:
  Stopping criterion = linesearch alpha is zero
  Energy initial, next-to-last, final =
  Force two-norm initial, final = 62.1991 26.2686
  Force max component initial, final = 7.18356 3.39014
  Final line search alpha, max atom move = 1.66659e-11 5.64997e-11
  Iterations, force evaluations = 81 217

timestep        1
fix             pysimm_md all nvt temp 300 300 100
run             5000
PPPM initialization ...
  G vector (1/distance) = 0.114027
  grid = 12 12 12
  stencil order = 5
  estimated absolute RMS force accuracy = 0.0415074
  estimated relative force accuracy = 0.000124998
  3d grid and FFT values/proc = 968 108
Step Temp E_pair E_mol TotEng Press
81    1577.7322    222.61612     554.2575    3086.0073    86.883774
Loop time of 2.43206 on 16 procs for 5000 steps with 492 atoms

unfix pysimm_md
write_dump all custom pysimm.dump.tmp id q x y z vx vy vz
quit

################################################################################
##################################    Init    ##################################
################################################################################
units           real
atom_style      full
pair_style      lj/cut/coul/long 12.0  12.0
kspace_style    pppm 1e-4
bond_style      harmonic
angle_style     harmonic
dihedral_style  fourier
improper_style  cvff
special_bonds   amber
pair_modify     mix arithmetic
read_data       temp.lmps
  orthogonal box = (-55.7049 -55.7049 -55.7049) to (55.7049 55.7049 55.7049)
  reading atoms ...
  438 atoms
  reading velocities ...
  438 velocities
  scanning bonds ...
  scanning angles ...
  scanning dihedrals ...
  scanning impropers ...
  reading bonds ...
  479 bonds
  reading angles ...
  852 angles
  reading dihedrals ...
  1350 dihedrals
  reading impropers ...
  126 impropers
################################################################################

min_style cg
minimize 1e-05 1e-05 10000 100000
PPPM initialization ...
  G vector (1/distance) = 0.112012
  grid = 12 12 12
  stencil order = 5
  estimated absolute RMS force accuracy = 0.0407088
  estimated relative force accuracy = 0.000122593
  3d grid and FFT values/proc = 968 108
  update every 1 steps, delay 0 steps, check yes
Step Temp E_pair E_mol TotEng Press
0    1580.7089    160.95839    556.73506     2776.747    70.678245
Loop time of 0.324391 on 16 procs for 110 steps with 438 atoms

Minimization stats:
  Stopping criterion = linesearch alpha is zero
  Energy initial, next-to-last, final =
  Force two-norm initial, final = 45.8814 22.178
  Force max component initial, final = 9.16624 3.14382
  Final line search alpha, max atom move = 2.5341e-11 7.96676e-11
  Iterations, force evaluations = 110 273

timestep        1
fix             pysimm_md all nvt temp 300 300 100
run             5000
PPPM initialization ...
  G vector (1/distance) = 0.112012
  grid = 12 12 12
  stencil order = 5
  estimated absolute RMS force accuracy = 0.0407088
  estimated relative force accuracy = 0.000122593
  3d grid and FFT values/proc = 968 108
Step Temp E_pair E_mol TotEng Press
110    1580.7089    142.15678     494.6863    2695.8966    67.171879
Loop time of 2.74201 on 16 procs for 5000 steps with 438 atoms

unfix pysimm_md
write_dump all custom pysimm.dump.tmp id q x y z vx vy vz
quit

################################################################################
##################################    Init    ##################################
################################################################################
units           real
atom_style      full
pair_style      lj/cut/coul/long 12.0  12.0
kspace_style    pppm 1e-4
bond_style      harmonic
angle_style     harmonic
dihedral_style  fourier
improper_style  cvff
special_bonds   amber
pair_modify     mix arithmetic
read_data       temp.lmps
  orthogonal box = (-117.114 -117.114 -117.114) to (117.114 117.114 117.114)
  reading atoms ...
  444 atoms
  reading velocities ...
  444 velocities
  scanning bonds ...
  scanning angles ...
  scanning dihedrals ...
  scanning impropers ...
  reading bonds ...
  485 bonds
  reading angles ...
  865 angles
  reading dihedrals ...
  1370 dihedrals
  reading impropers ...
  126 impropers
################################################################################

min_style cg
minimize 1e-05 1e-05 10000 100000
PPPM initialization ...
  G vector (1/distance) = 0.0763484
  grid = 15 15 15
  stencil order = 5
  estimated absolute RMS force accuracy = 0.0355365
  estimated relative force accuracy = 0.000107017
  3d grid and FFT values/proc = 1521 256
  update every 1 steps, delay 0 steps, check yes
Step Temp E_pair E_mol TotEng Press
0    875.70211     138.0828    533.94048    1828.3869    4.5139597
Loop time of 0.11053 on 16 procs for 11 steps with 444 atoms

Minimization stats:
  Stopping criterion = linesearch alpha is zero
  Energy initial, next-to-last, final =
  Force two-norm initial, final = 56.1664 45.9508
  Force max component initial, final = 10.5157 5.68061
  Final line search alpha, max atom move = 3.43728e-12 1.95258e-11
  Iterations, force evaluations = 11 81

timestep        1
fix             pysimm_md all nvt temp 300 300 100
run             5000
PPPM initialization ...
  G vector (1/distance) = 0.0763484
  grid = 15 15 15
  stencil order = 5
  estimated absolute RMS force accuracy = 0.0355365
  estimated relative force accuracy = 0.000107017
  3d grid and FFT values/proc = 1521 256
Step Temp E_pair E_mol TotEng Press
11    875.70211    132.95876    527.23619    1816.5586    4.3776397
Loop time of 4.27631 on 16 procs for 5000 steps with 444 atoms

unfix pysimm_md
write_dump all custom pysimm.dump.tmp id q x y z vx vy vz
quit

################################################################################
##################################    Init    ##################################
################################################################################
units           real
atom_style      full
pair_style      lj/cut/coul/long 12.0  12.0
kspace_style    pppm 1e-4
bond_style      harmonic
angle_style     harmonic
dihedral_style  fourier
improper_style  cvff
special_bonds   amber
pair_modify     mix arithmetic
read_data       temp.lmps
  orthogonal box = (-58.4265 -58.4265 -58.4265) to (58.4265 58.4265 58.4265)
  reading atoms ...
  510 atoms
  reading velocities ...
  510 velocities
  scanning bonds ...
  scanning angles ...
  scanning dihedrals ...
  scanning impropers ...
  reading bonds ...
  558 bonds
  reading angles ...
  994 angles
  reading dihedrals ...
  1576 dihedrals
  reading impropers ...
  147 impropers
################################################################################

min_style cg
minimize 1e-05 1e-05 10000 100000
PPPM initialization ...
  G vector (1/distance) = 0.125481
  grid = 15 15 15
  stencil order = 5
  estimated absolute RMS force accuracy = 0.0257829
  estimated relative force accuracy = 7.76446e-05
  3d grid and FFT values/proc = 1521 256
  update every 1 steps, delay 0 steps, check yes
Step Temp E_pair E_mol TotEng Press
0    466.01231    173.54999    555.18402     1435.783    23.140478
Loop time of 0.198955 on 16 procs for 63 steps with 510 atoms

Minimization stats:
  Stopping criterion = linesearch alpha is zero
  Energy initial, next-to-last, final =
  Force two-norm initial, final = 38.4022 24.9884
  Force max component initial, final = 6.67476 3.71208
  Final line search alpha, max atom move = 1.35274e-11 5.0215e-11
  Iterations, force evaluations = 63 181

timestep        1
fix             pysimm_md all nvt temp 300 300 100
run             5000
PPPM initialization ...
  G vector (1/distance) = 0.125481
  grid = 15 15 15
  stencil order = 5
  estimated absolute RMS force accuracy = 0.0257829
  estimated relative force accuracy = 7.76446e-05
  3d grid and FFT values/proc = 1521 256
Step Temp E_pair E_mol TotEng Press
63    466.01231    168.51585     529.8913    1405.4561    21.321966
Loop time of 3.75609 on 16 procs for 5000 steps with 510 atoms

unfix pysimm_md
write_dump all custom pysimm.dump.tmp id q x y z vx vy vz
quit

################################################################################
##################################    Init    ##################################
################################################################################
units           real
atom_style      full
pair_style      lj/cut/coul/long 12.0  12.0
kspace_style    pppm 1e-4
bond_style      harmonic
angle_style     harmonic
dihedral_style  fourier
improper_style  cvff
special_bonds   amber
pair_modify     mix arithmetic
read_data       temp.lmps
  orthogonal box = (-122.444 -122.444 -122.444) to (122.444 122.444 122.444)
  reading atoms ...
  456 atoms
  reading velocities ...
  456 velocities
  scanning bonds ...
  scanning angles ...
  scanning dihedrals ...
  scanning impropers ...
  reading bonds ...
  497 bonds
  reading angles ...
  889 angles
  reading dihedrals ...
  1406 dihedrals
  reading impropers ...
  126 impropers
################################################################################

min_style cg
minimize 1e-05 1e-05 10000 100000
PPPM initialization ...
  G vector (1/distance) = 0.0736727
  grid = 15 15 15
  stencil order = 5
  estimated absolute RMS force accuracy = 0.0360063
  estimated relative force accuracy = 0.000108432
  3d grid and FFT values/proc = 1521 256
  update every 1 steps, delay 0 steps, check yes
Step Temp E_pair E_mol TotEng Press
0    270.45585    77.438769    520.98883    965.23836   0.56818945
Loop time of 0.133961 on 16 procs for 26 steps with 456 atoms

Minimization stats:
  Stopping criterion = linesearch alpha is zero
  Energy initial, next-to-last, final =
  Force two-norm initial, final = 69.3406 32.7374
  Force max component initial, final = 12.2929 8.79289
  Final line search alpha, max atom move = 1.09438e-11 9.62274e-11
  Iterations, force evaluations = 26 109

timestep        1
fix             pysimm_md all nvt temp 300 300 100
run             5000
PPPM initialization ...
  G vector (1/distance) = 0.0736727
  grid = 15 15 15
  stencil order = 5
  estimated absolute RMS force accuracy = 0.0360063
  estimated relative force accuracy = 0.000108432
  3d grid and FFT values/proc = 1521 256
Step Temp E_pair E_mol TotEng Press
26    270.45585    67.948738    492.42086    927.18036   0.81472574
Loop time of 3.1729 on 16 procs for 5000 steps with 456 atoms

unfix pysimm_md
write_dump all custom pysimm.dump.tmp id q x y z vx vy vz
quit

################################################################################
##################################    Init    ##################################
################################################################################
units           real
atom_style      full
pair_style      lj/cut/coul/long 12.0  12.0
kspace_style    pppm 1e-4
bond_style      harmonic
angle_style     harmonic
dihedral_style  fourier
improper_style  cvff
special_bonds   amber
pair_modify     mix arithmetic
read_data       temp.lmps
  orthogonal box = (-60.9156 -60.9156 -60.9156) to (60.9156 60.9156 60.9156)
  reading atoms ...
  522 atoms
  reading velocities ...
  522 velocities
  scanning bonds ...
  scanning angles ...
  scanning dihedrals ...
  scanning impropers ...
  reading bonds ...
  570 bonds
  reading angles ...
  1018 angles
  reading dihedrals ...
  1611 dihedrals
  reading impropers ...
  147 impropers
################################################################################

min_style cg
minimize 1e-05 1e-05 10000 100000
PPPM initialization ...
  G vector (1/distance) = 0.122232
  grid = 15 15 15
  stencil order = 5
  estimated absolute RMS force accuracy = 0.0277283
  estimated relative force accuracy = 8.35029e-05
  3d grid and FFT values/proc = 1521 256
  update every 1 steps, delay 0 steps, check yes
Step Temp E_pair E_mol TotEng Press
0    557.59098    127.55389    571.02498    1564.5188      18.9996
Loop time of 0.119615 on 16 procs for 24 steps with 522 atoms

Minimization stats:
  Stopping criterion = linesearch alpha is zero
  Energy initial, next-to-last, final =
  Force two-norm initial, final = 40.9473 27.8866
  Force max component initial, final = 6.50431 4.38295
  Final line search alpha, max atom move = 1.25711e-11 5.50986e-11
  Iterations, force evaluations = 24 105

timestep        1
fix             pysimm_md all nvt temp 300 300 100
run             5000
PPPM initialization ...
  G vector (1/distance) = 0.122232
  grid = 15 15 15
  stencil order = 5
  estimated absolute RMS force accuracy = 0.0277283
  estimated relative force accuracy = 8.35029e-05
  3d grid and FFT values/proc = 1521 256
Step Temp E_pair E_mol TotEng Press
24    557.59098    124.11661    561.82117    1551.8777    18.413241
Loop time of 3.974 on 16 procs for 5000 steps with 522 atoms

unfix pysimm_md
write_dump all custom pysimm.dump.tmp id q x y z vx vy vz
quit

################################################################################
##################################    Init    ##################################
################################################################################
units           real
atom_style      full
pair_style      lj/cut/coul/long 12.0  12.0
kspace_style    pppm 1e-4
bond_style      harmonic
angle_style     harmonic
dihedral_style  fourier
improper_style  cvff
special_bonds   amber
pair_modify     mix arithmetic
read_data       temp.lmps
  orthogonal box = (-127.347 -127.347 -127.347) to (127.347 127.347 127.347)
  reading atoms ...
  588 atoms
  reading velocities ...
  588 velocities
  scanning bonds ...
  scanning angles ...
  scanning dihedrals ...
  scanning impropers ...
  reading bonds ...
  643 bonds
  reading angles ...
  1147 angles
  reading dihedrals ...
  1818 dihedrals
  reading impropers ...
  168 impropers
################################################################################

min_style cg
minimize 1e-05 1e-05 10000 100000
PPPM initialization ...
  G vector (1/distance) = 0.0825042
  grid = 18 18 18
  stencil order = 5
  estimated absolute RMS force accuracy = 0.0312585
  estimated relative force accuracy = 9.4134e-05
  3d grid and FFT values/proc = 1960 648
  update every 1 steps, delay 0 steps, check yes
Step Temp E_pair E_mol TotEng Press
0    841.34592    172.14396     730.5936    2374.8704    3.6209366
Loop time of 0.32966 on 16 procs for 30 steps with 588 atoms

Minimization stats:
  Stopping criterion = linesearch alpha is zero
  Energy initial, next-to-last, final =
  Force two-norm initial, final = 56.4241 44.6088
  Force max component initial, final = 9.33359 5.76447
  Final line search alpha, max atom move = 3.66046e-12 2.11006e-11
  Iterations, force evaluations = 30 179

timestep        1
fix             pysimm_md all nvt temp 300 300 100
run             5000
PPPM initialization ...
  G vector (1/distance) = 0.0825042
  grid = 18 18 18
  stencil order = 5
  estimated absolute RMS force accuracy = 0.0312585
  estimated relative force accuracy = 9.4134e-05
  3d grid and FFT values/proc = 1960 648
Step Temp E_pair E_mol TotEng Press
30    841.34592    152.02439    706.19521    2330.3524    3.3304737
Loop time of 4.97086 on 16 procs for 5000 steps with 588 atoms

unfix pysimm_md
write_dump all custom pysimm.dump.tmp id q x y z vx vy vz
quit

################################################################################
##################################    Init    ##################################
################################################################################
units           real
atom_style      full
pair_style      lj/cut/coul/long 12.0  12.0
kspace_style    pppm 1e-4
bond_style      harmonic
angle_style     harmonic
dihedral_style  fourier
improper_style  cvff
special_bonds   amber
pair_modify     mix arithmetic
read_data       temp.lmps
  orthogonal box = (-63.2165 -63.2165 -63.2165) to (63.2165 63.2165 63.2165)
  reading atoms ...
  774 atoms
  reading velocities ...
  774 velocities
  scanning bonds ...
  scanning angles ...
  scanning dihedrals ...
  scanning impropers ...
  reading bonds ...
  850 bonds
  reading angles ...
  1510 angles
  reading dihedrals ...
  2403 dihedrals
  reading impropers ...
  231 impropers
################################################################################

min_style cg
minimize 1e-05 1e-05 10000 100000
PPPM initialization ...
  G vector (1/distance) = 0.119368
  grid = 15 15 15
  stencil order = 5
  estimated absolute RMS force accuracy = 0.0345863
  estimated relative force accuracy = 0.000104156
  3d grid and FFT values/proc = 1521 256
  update every 1 steps, delay 0 steps, check yes
Step Temp E_pair E_mol TotEng Press
0    632.80812    350.02104    914.73328    2722.8494    27.948512
Loop time of 0.475299 on 16 procs for 83 steps with 774 atoms

Minimization stats:
  Stopping criterion = linesearch alpha is zero
  Energy initial, next-to-last, final =
  Force two-norm initial, final = 51.1605 31.6944
  Force max component initial, final = 6.29128 3.45704
  Final line search alpha, max atom move = 8.46344e-12 2.92584e-11
  Iterations, force evaluations = 83 223

timestep        1
fix             pysimm_md all nvt temp 300 300 100
run             5000
PPPM initialization ...
  G vector (1/distance) = 0.119368
  grid = 15 15 15
  stencil order = 5
  estimated absolute RMS force accuracy = 0.0345863
  estimated relative force accuracy = 0.000104156
  3d grid and FFT values/proc = 1521 256
Step Temp E_pair E_mol TotEng Press
83    632.80812    337.26866    845.21282    2640.5765    32.753369
Loop time of 4.58283 on 16 procs for 5000 steps with 774 atoms

unfix pysimm_md
write_dump all custom pysimm.dump.tmp id q x y z vx vy vz
quit

################################################################################
##################################    Init    ##################################
################################################################################
units           real
atom_style      full
pair_style      lj/cut/coul/long 12.0  12.0
kspace_style    pppm 1e-4
bond_style      harmonic
angle_style     harmonic
dihedral_style  fourier
improper_style  cvff
special_bonds   amber
pair_modify     mix arithmetic
read_data       temp.lmps
  orthogonal box = (-64.3067 -64.3067 -64.3067) to (64.3067 64.3067 64.3067)
  reading atoms ...
  780 atoms
  reading velocities ...
  780 velocities
  scanning bonds ...
  scanning angles ...
  scanning dihedrals ...
  scanning impropers ...
  reading bonds ...
  856 bonds
  reading angles ...
  1521 angles
  reading dihedrals ...
  2418 dihedrals
  reading impropers ...
  231 impropers
################################################################################

min_style cg
minimize 1e-05 1e-05 10000 100000
PPPM initialization ...
  G vector (1/distance) = 0.118054
  grid = 15 15 15
  stencil order = 5
  estimated absolute RMS force accuracy = 0.0354927
  estimated relative force accuracy = 0.000106885
  3d grid and FFT values/proc = 1521 256
  update every 1 steps, delay 0 steps, check yes
Step Temp E_pair E_mol TotEng Press
0     958.7904    305.96766    968.12979    3500.4577    46.640745
Loop time of 0.776053 on 16 procs for 129 steps with 780 atoms

Minimization stats:
  Stopping criterion = linesearch alpha is zero
  Energy initial, next-to-last, final =
  Force two-norm initial, final = 53.7813 36.9773
  Force max component initial, final = 7.30559 6.92139
  Final line search alpha, max atom move = 8.42128e-12 5.8287e-11
  Iterations, force evaluations = 129 313

timestep        1
fix             pysimm_md all nvt temp 300 300 100
run             5000
PPPM initialization ...
  G vector (1/distance) = 0.118054
  grid = 15 15 15
  stencil order = 5
  estimated absolute RMS force accuracy = 0.0354927
  estimated relative force accuracy = 0.000106885
  3d grid and FFT values/proc = 1521 256
Step Temp E_pair E_mol TotEng Press
129     958.7904    280.50598    863.97866    3370.8449    44.956816
Loop time of 4.78103 on 16 procs for 5000 steps with 780 atoms

unfix pysimm_md
write_dump all custom pysimm.dump.tmp id q x y z vx vy vz
quit

################################################################################
##################################    Init    ##################################
################################################################################
units           real
atom_style      full
pair_style      lj/cut/coul/long 12.0  12.0
kspace_style    pppm 1e-4
bond_style      harmonic
angle_style     harmonic
dihedral_style  fourier
improper_style  cvff
special_bonds   amber
pair_modify     mix arithmetic
read_data       temp.lmps
  orthogonal box = (-65.361 -65.361 -65.361) to (65.361 65.361 65.361)
  reading atoms ...
  846 atoms
  reading velocities ...
  846 velocities
  scanning bonds ...
  scanning angles ...
  scanning dihedrals ...
  scanning impropers ...
  reading bonds ...
  929 bonds
  reading angles ...
  1651 angles
  reading dihedrals ...
  2628 dihedrals
  reading impropers ...
  252 impropers
################################################################################

min_style cg
minimize 1e-05 1e-05 10000 100000
PPPM initialization ...
  G vector (1/distance) = 0.116809
  grid = 15 15 15
  stencil order = 5
  estimated absolute RMS force accuracy = 0.0375467
  estimated relative force accuracy = 0.000113071
  3d grid and FFT values/proc = 1521 256
  update every 1 steps, delay 0 steps, check yes
Step Temp E_pair E_mol TotEng Press
0    829.87248    395.87851     1045.347    3531.4955    39.650396
Loop time of 0.648927 on 16 procs for 132 steps with 846 atoms

Minimization stats:
  Stopping criterion = linesearch alpha is zero
  Energy initial, next-to-last, final =
  Force two-norm initial, final = 54.937 24.5745
  Force max component initial, final = 6.25108 3.88167
  Final line search alpha, max atom move = 1.76073e-11 6.83458e-11
  Iterations, force evaluations = 132 319

timestep        1
fix             pysimm_md all nvt temp 300 300 100
run             5000
PPPM initialization ...
  G vector (1/distance) = 0.116809
  grid = 15 15 15
  stencil order = 5
  estimated absolute RMS force accuracy = 0.0375467
  estimated relative force accuracy = 0.000113071
  3d grid and FFT values/proc = 1521 256
Step Temp E_pair E_mol TotEng Press
132    829.87248    376.74487    948.14685    3415.1616    42.251799
Loop time of 4.28968 on 16 procs for 5000 steps with 846 atoms

unfix pysimm_md
write_dump all custom pysimm.dump.tmp id q x y z vx vy vz
quit

################################################################################
##################################    Init    ##################################
################################################################################
units           real
atom_style      full
pair_style      lj/cut/coul/long 12.0  12.0
kspace_style    pppm 1e-4
bond_style      harmonic
angle_style     harmonic
dihedral_style  fourier
improper_style  cvff
special_bonds   amber
pair_modify     mix arithmetic
read_data       temp.lmps
  orthogonal box = (-136.157 -136.157 -136.157) to (136.157 136.157 136.157)
  reading atoms ...
  1032 atoms
  reading velocities ...
  1032 velocities
  scanning bonds ...
  scanning angles ...
  scanning dihedrals ...
  scanning impropers ...
  reading bonds ...
  1136 bonds
  reading angles ...
  2014 angles
  reading dihedrals ...
  3212 dihedrals
  reading impropers ...
  315 impropers
################################################################################

min_style cg
minimize 1e-05 1e-05 10000 100000
PPPM initialization ...
  G vector (1/distance) = 0.0849916
  grid = 20 20 20
  stencil order = 5
  estimated absolute RMS force accuracy = 0.0344645
  estimated relative force accuracy = 0.000103789
  3d grid and FFT values/proc = 2250 800
  update every 1 steps, delay 0 steps, check yes
Step Temp E_pair E_mol TotEng Press
0    1080.8552    586.44191    1310.0876      5218.23    5.4673631
Loop time of 0.344464 on 16 procs for 29 steps with 1032 atoms

Minimization stats:
  Stopping criterion = linesearch alpha is zero
  Energy initial, next-to-last, final =
  Force two-norm initial, final = 79.4658 64.145
  Force max component initial, final = 8.67733 7.91043
  Final line search alpha, max atom move = 2.08298e-12 1.64773e-11
  Iterations, force evaluations = 29 117

timestep        1
fix             pysimm_md all nvt temp 300 300 100
run             5000
PPPM initialization ...
  G vector (1/distance) = 0.0849916
  grid = 20 20 20
  stencil order = 5
  estimated absolute RMS force accuracy = 0.0344645
  estimated relative force accuracy = 0.000103789
  3d grid and FFT values/proc = 2250 800
Step Temp E_pair E_mol TotEng Press
29    1080.8552    584.23788    1261.5069    5167.4452    5.8708876
Loop time of 4.85168 on 16 procs for 5000 steps with 1032 atoms

unfix pysimm_md
write_dump all custom pysimm.dump.tmp id q x y z vx vy vz
quit

################################################################################
##################################    Init    ##################################
################################################################################
units           real
atom_style      full
pair_style      lj/cut/coul/long 12.0  12.0
kspace_style    pppm 1e-4
bond_style      harmonic
angle_style     harmonic
dihedral_style  fourier
improper_style  cvff
special_bonds   amber
pair_modify     mix arithmetic
read_data       temp.lmps
  orthogonal box = (-138.189 -138.189 -138.189) to (138.189 138.189 138.189)
  reading atoms ...
  678 atoms
  reading velocities ...
  678 velocities
  scanning bonds ...
  scanning angles ...
  scanning dihedrals ...
  scanning impropers ...
  reading bonds ...
  740 bonds
  reading angles ...
  1325 angles
  reading dihedrals ...
  2100 dihedrals
  reading impropers ...
  189 impropers
################################################################################

min_style cg
minimize 1e-05 1e-05 10000 100000
PPPM initialization ...
  G vector (1/distance) = 0.0773784
  grid = 18 18 18
  stencil order = 5
  estimated absolute RMS force accuracy = 0.0336876
  estimated relative force accuracy = 0.000101449
  3d grid and FFT values/proc = 1960 648
  update every 1 steps, delay 0 steps, check yes
Step Temp E_pair E_mol TotEng Press
0    299.98039    156.09039    742.34312    1503.7964   0.89564101
Loop time of 0.181783 on 16 procs for 10 steps with 678 atoms

Minimization stats:
  Stopping criterion = linesearch alpha is zero
  Energy initial, next-to-last, final =
  Force two-norm initial, final = 58.8692 37.7154
  Force max component initial, final = 8.08909 5.24571
  Final line search alpha, max atom move = 6.1496e-12 3.2259e-11
  Iterations, force evaluations = 10 79

timestep        1
fix             pysimm_md all nvt temp 300 300 100
run             5000
PPPM initialization ...
  G vector (1/distance) = 0.0773784
  grid = 18 18 18
  stencil order = 5
  estimated absolute RMS force accuracy = 0.0336876
  estimated relative force accuracy = 0.000101449
  3d grid and FFT values/proc = 1960 648
Step Temp E_pair E_mol TotEng Press
10    299.98039    154.21433    734.23924    1493.8165   0.94966249
Loop time of 5.42436 on 16 procs for 5000 steps with 678 atoms

unfix pysimm_md
write_dump all custom pysimm.dump.tmp id q x y z vx vy vz
quit

################################################################################
##################################    Init    ##################################
################################################################################
units           real
atom_style      full
pair_style      lj/cut/coul/long 12.0  12.0
kspace_style    pppm 1e-4
bond_style      harmonic
angle_style     harmonic
dihedral_style  fourier
improper_style  cvff
special_bonds   amber
pair_modify     mix arithmetic
read_data       temp.lmps
  orthogonal box = (-140.164 -140.164 -140.164) to (140.164 140.164 140.164)
  reading atoms ...
  864 atoms
  reading velocities ...
  864 velocities
  scanning bonds ...
  scanning angles ...
  scanning dihedrals ...
  scanning impropers ...
  reading bonds ...
  947 bonds
  reading angles ...
  1688 angles
  reading dihedrals ...
  2681 dihedrals
  reading impropers ...
  252 impropers
################################################################################

min_style cg
minimize 1e-05 1e-05 10000 100000
PPPM initialization ...
  G vector (1/distance) = 0.0831116
  grid = 20 20 20
  stencil order = 5
  estimated absolute RMS force accuracy = 0.0321146
  estimated relative force accuracy = 9.67122e-05
  3d grid and FFT values/proc = 2250 800
  update every 1 steps, delay 0 steps, check yes
Step Temp E_pair E_mol TotEng Press
0    1215.7291    286.54216    1054.0918     4468.023    6.6075335
Loop time of 0.219913 on 16 procs for 9 steps with 864 atoms

Minimization stats:
  Stopping criterion = linesearch alpha is zero
  Energy initial, next-to-last, final =
  Force two-norm initial, final = 77.4319 56.2135
  Force max component initial, final = 9.09828 5.63036
  Final line search alpha, max atom move = 2.48461e-12 1.39892e-11
  Iterations, force evaluations = 9 79

timestep        1
fix             pysimm_md all nvt temp 300 300 100
run             5000
PPPM initialization ...
  G vector (1/distance) = 0.0831116
  grid = 20 20 20
  stencil order = 5
  estimated absolute RMS force accuracy = 0.0321146
  estimated relative force accuracy = 9.67122e-05
  3d grid and FFT values/proc = 2250 800
Step Temp E_pair E_mol TotEng Press
9    1215.7291    280.55548    1044.5976    4452.5422    6.3025609
Loop time of 5.12048 on 16 procs for 5000 steps with 864 atoms

unfix pysimm_md
write_dump all custom pysimm.dump.tmp id q x y z vx vy vz
quit

################################################################################
##################################    Init    ##################################
################################################################################
units           real
atom_style      full
pair_style      lj/cut/coul/long 12.0  12.0
kspace_style    pppm 1e-4
bond_style      harmonic
angle_style     harmonic
dihedral_style  fourier
improper_style  cvff
special_bonds   amber
pair_modify     mix arithmetic
read_data       temp.lmps
  orthogonal box = (-69.2722 -69.2722 -69.2722) to (69.2722 69.2722 69.2722)
  reading atoms ...
  870 atoms
  reading velocities ...
  870 velocities
  scanning bonds ...
  scanning angles ...
  scanning dihedrals ...
  scanning impropers ...
  reading bonds ...
  953 bonds
  reading angles ...
  1698 angles
  reading dihedrals ...
  2697 dihedrals
  reading impropers ...
  252 impropers
################################################################################

min_style cg
minimize 1e-05 1e-05 10000 100000
PPPM initialization ...
  G vector (1/distance) = 0.112401
  grid = 15 15 15
  stencil order = 5
  estimated absolute RMS force accuracy = 0.04076
  estimated relative force accuracy = 0.000122747
  3d grid and FFT values/proc = 1521 256
  update every 1 steps, delay 0 steps, check yes
Step Temp E_pair E_mol TotEng Press
0    819.91359    333.21073     1019.015    3476.0675    28.699959
Loop time of 0.711724 on 16 procs for 110 steps with 870 atoms

Minimization stats:
  Stopping criterion = linesearch alpha is zero
  Energy initial, next-to-last, final =
  Force two-norm initial, final = 62.1466 28.3897
  Force max component initial, final = 7.83296 3.83553
  Final line search alpha, max atom move = 1.54225e-11 5.91537e-11
  Iterations, force evaluations = 110 274

timestep        1
fix             pysimm_md all nvt temp 300 300 100
run             5000
PPPM initialization ...
  G vector (1/distance) = 0.112401
  grid = 15 15 15
  stencil order = 5
  estimated absolute RMS force accuracy = 0.04076
  estimated relative force accuracy = 0.000122747
  3d grid and FFT values/proc = 1521 256
Step Temp E_pair E_mol TotEng Press
110    819.91359    323.91094    933.59442    3381.3472    31.344673
Loop time of 4.73806 on 16 procs for 5000 steps with 870 atoms

unfix pysimm_md
write_dump all custom pysimm.dump.tmp id q x y z vx vy vz
quit

################################################################################
##################################    Init    ##################################
################################################################################
units           real
atom_style      full
pair_style      lj/cut/coul/long 12.0  12.0
kspace_style    pppm 1e-4
bond_style      harmonic
angle_style     harmonic
dihedral_style  fourier
improper_style  cvff
special_bonds   amber
pair_modify     mix arithmetic
read_data       temp.lmps
  orthogonal box = (-143.954 -143.954 -143.954) to (143.954 143.954 143.954)
  reading atoms ...
  1176 atoms
  reading velocities ...
  1176 velocities
  scanning bonds ...
  scanning angles ...
  scanning dihedrals ...
  scanning impropers ...
  reading bonds ...
  1294 bonds
  reading angles ...
  2297 angles
  reading dihedrals ...
  3663 dihedrals
  reading impropers ...
  357 impropers
################################################################################

min_style cg
minimize 1e-05 1e-05 10000 100000
PPPM initialization ...
  G vector (1/distance) = 0.0934938
  grid = 24 24 24
  stencil order = 5
  estimated absolute RMS force accuracy = 0.0272525
  estimated relative force accuracy = 8.20701e-05
  3d grid and FFT values/proc = 3179 1152
  update every 1 steps, delay 0 steps, check yes
Step Temp E_pair E_mol TotEng Press
0    1893.7297    628.00439    1534.2502    8794.9515    12.949074
Loop time of 0.37527 on 16 procs for 31 steps with 1176 atoms

Minimization stats:
  Stopping criterion = linesearch alpha is zero
  Energy initial, next-to-last, final =
  Force two-norm initial, final = 88.4906 67.8567
  Force max component initial, final = 9.54296 7.63031
  Final line search alpha, max atom move = 2.33926e-12 1.78493e-11
  Iterations, force evaluations = 31 121

timestep        1
fix             pysimm_md all nvt temp 300 300 100
run             5000
PPPM initialization ...
  G vector (1/distance) = 0.0934938
  grid = 24 24 24
  stencil order = 5
  estimated absolute RMS force accuracy = 0.0272525
  estimated relative force accuracy = 8.20701e-05
  3d grid and FFT values/proc = 3179 1152
Step Temp E_pair E_mol TotEng Press
31    1893.7297    609.32162    1478.7454    8720.7639    12.286481
Loop time of 7.23747 on 16 procs for 5000 steps with 1176 atoms

unfix pysimm_md
write_dump all custom pysimm.dump.tmp id q x y z vx vy vz
quit

################################################################################
##################################    Init    ##################################
################################################################################
units           real
atom_style      full
pair_style      lj/cut/coul/long 12.0  12.0
kspace_style    pppm 1e-4
bond_style      harmonic
angle_style     harmonic
dihedral_style  fourier
improper_style  cvff
special_bonds   amber
pair_modify     mix arithmetic
read_data       temp.lmps
  orthogonal box = (-71.0723 -71.0723 -71.0723) to (71.0723 71.0723 71.0723)
  reading atoms ...
  822 atoms
  reading velocities ...
  822 velocities
  scanning bonds ...
  scanning angles ...
  scanning dihedrals ...
  scanning impropers ...
  reading bonds ...
  898 bonds
  reading angles ...
  1605 angles
  reading dihedrals ...
  2542 dihedrals
  reading impropers ...
  231 impropers
################################################################################

min_style cg
minimize 1e-05 1e-05 10000 100000
PPPM initialization ...
  G vector (1/distance) = 0.115344
  grid = 16 16 16
  stencil order = 5
  estimated absolute RMS force accuracy = 0.0349715
  estimated relative force accuracy = 0.000105316
  3d grid and FFT values/proc = 1521 256
  update every 1 steps, delay 0 steps, check yes
Step Temp E_pair E_mol TotEng Press
0    1274.1493    186.11164    913.28256    4217.5499    41.806809
Loop time of 0.261403 on 16 procs for 71 steps with 822 atoms

Minimization stats:
  Stopping criterion = energy tolerance
  Energy initial, next-to-last, final =
  Force two-norm initial, final = 51.4017 29.9674
  Force max component initial, final = 6.7951 3.97039
  Final line search alpha, max atom move = 0.00674386 0.0267758
  Iterations, force evaluations = 71 142

timestep        1
fix             pysimm_md all nvt temp 300 300 100
run             5000
PPPM initialization ...
  G vector (1/distance) = 0.115344
  grid = 16 16 16
  stencil order = 5
  estimated absolute RMS force accuracy = 0.0349715
  estimated relative force accuracy = 0.000105316
  3d grid and FFT values/proc = 1521 256
Step Temp E_pair E_mol TotEng Press
71    1274.1493    174.85238    874.05029    4167.0583    44.868398
Loop time of 3.98975 on 16 procs for 5000 steps with 822 atoms

unfix pysimm_md
write_dump all custom pysimm.dump.tmp id q x y z vx vy vz
quit

################################################################################
##################################    Init    ##################################
################################################################################
units           real
atom_style      full
pair_style      lj/cut/coul/long 12.0  12.0
kspace_style    pppm 1e-4
bond_style      harmonic
angle_style     harmonic
dihedral_style  fourier
improper_style  cvff
special_bonds   amber
pair_modify     mix arithmetic
read_data       temp.lmps
  orthogonal box = (-147.554 -147.554 -147.554) to (147.554 147.554 147.554)
  reading atoms ...
  1008 atoms
  reading velocities ...
  1008 velocities
  scanning bonds ...
  scanning angles ...
  scanning dihedrals ...
  scanning impropers ...
  reading bonds ...
  1105 bonds
  reading angles ...
  1969 angles
  reading dihedrals ...
  3128 dihedrals
  reading impropers ...
  294 impropers
################################################################################

min_style cg
minimize 1e-05 1e-05 10000 100000
PPPM initialization ...
  G vector (1/distance) = 0.0798473
  grid = 20 20 20
  stencil order = 5
  estimated absolute RMS force accuracy = 0.0346711
  estimated relative force accuracy = 0.000104411
  3d grid and FFT values/proc = 2250 800
  update every 1 steps, delay 0 steps, check yes
Step Temp E_pair E_mol TotEng Press
0    551.64873    365.07949    1131.0602    3152.0103    1.9675028
Loop time of 0.205017 on 16 procs for 3 steps with 1008 atoms

Minimization stats:
  Stopping criterion = linesearch alpha is zero
  Energy initial, next-to-last, final =
  Force two-norm initial, final = 66.5809 47.9273
  Force max component initial, final = 8.60943 6.21198
  Final line search alpha, max atom move = 5.3439e-12 3.31962e-11
  Iterations, force evaluations = 3 67

timestep        1
fix             pysimm_md all nvt temp 300 300 100
run             5000
PPPM initialization ...
  G vector (1/distance) = 0.0798473
  grid = 20 20 20
  stencil order = 5
  estimated absolute RMS force accuracy = 0.0346711
  estimated relative force accuracy = 0.000104411
  3d grid and FFT values/proc = 2250 800
Step Temp E_pair E_mol TotEng Press
3    551.64873    363.65513    1128.6002    3148.1259    2.0628311
Loop time of 5.60369 on 16 procs for 5000 steps with 1008 atoms

unfix pysimm_md
write_dump all custom pysimm.dump.tmp id q x y z vx vy vz
quit

################################################################################
##################################    Init    ##################################
################################################################################
units           real
atom_style      full
pair_style      lj/cut/coul/long 12.0  12.0
kspace_style    pppm 1e-4
bond_style      harmonic
angle_style     harmonic
dihedral_style  fourier
improper_style  cvff
special_bonds   amber
pair_modify     mix arithmetic
read_data       temp.lmps
  orthogonal box = (-149.29 -149.29 -149.29) to (149.29 149.29 149.29)
  reading atoms ...
  954 atoms
  reading velocities ...
  954 velocities
  scanning bonds ...
  scanning angles ...
  scanning dihedrals ...
  scanning impropers ...
  reading bonds ...
  1044 bonds
  reading angles ...
  1864 angles
  reading dihedrals ...
  2957 dihedrals
  reading impropers ...
  273 impropers
################################################################################

min_style cg
minimize 1e-05 1e-05 10000 100000
PPPM initialization ...
  G vector (1/distance) = 0.0791161
  grid = 20 20 20
  stencil order = 5
  estimated absolute RMS force accuracy = 0.0339231
  estimated relative force accuracy = 0.000102158
  3d grid and FFT values/proc = 2250 800
  update every 1 steps, delay 0 steps, check yes
Loop time of 0.368802 on 16 procs for 23 steps with 954 atoms

Minimization stats:
  Stopping criterion = linesearch alpha is zero
  Energy initial, next-to-last, final =
  Force two-norm initial, final = 86.4992 67.2172
  Force max component initial, final = 11.7819 7.73563
  Final line search alpha, max atom move = 1.64617e-12 1.27341e-11
  Iterations, force evaluations = 23 107

timestep        1
fix             pysimm_md all nvt temp 300 300 100
run             5000
PPPM initialization ...
  G vector (1/distance) = 0.0791161
  grid = 20 20 20
  stencil order = 5
  estimated absolute RMS force accuracy = 0.0339231
  estimated relative force accuracy = 0.000102158
  3d grid and FFT values/proc = 2250 800
Loop time of 6.29133 on 16 procs for 5000 steps with 954 atoms

unfix pysimm_md
write_dump all custom pysimm.dump.tmp id q x y z vx vy vz
quit

################################################################################
##################################    Init    ##################################
################################################################################
units           real
atom_style      full
pair_style      lj/cut/coul/long 12.0  12.0
kspace_style    pppm 1e-4
bond_style      harmonic
angle_style     harmonic
dihedral_style  fourier
improper_style  cvff
special_bonds   amber
pair_modify     mix arithmetic
read_data       temp.lmps
  orthogonal box = (-73.6127 -73.6127 -73.6127) to (73.6127 73.6127 73.6127)
  reading atoms ...
  1080 atoms
  reading velocities ...
  1080 velocities
  scanning bonds ...
  scanning angles ...
  scanning dihedrals ...
  scanning impropers ...
  reading bonds ...
  1184 bonds
  reading angles ...
  2109 angles
  reading dihedrals ...
  3350 dihedrals
  reading impropers ...
  315 impropers
################################################################################

min_style cg
minimize 1e-05 1e-05 10000 100000
PPPM initialization ...
  G vector (1/distance) = 0.112685
  grid = 16 16 16
  stencil order = 5
  estimated absolute RMS force accuracy = 0.0409794
  estimated relative force accuracy = 0.000123408
  3d grid and FFT values/proc = 1521 256
  update every 1 steps, delay 0 steps, check yes
Loop time of 0.505526 on 16 procs for 37 steps with 1080 atoms

Minimization stats:
  Stopping criterion = linesearch alpha is zero
  Energy initial, next-to-last, final =
  Force two-norm initial, final = 58.2867 47.8849
  Force max component initial, final = 7.84317 5.84696
  Final line search alpha, max atom move = 3.24227e-12 1.89574e-11
  Iterations, force evaluations = 37 133

timestep        1
fix             pysimm_md all nvt temp 300 300 100
run             5000
PPPM initialization ...
  G vector (1/distance) = 0.112685
  grid = 16 16 16
  stencil order = 5
  estimated absolute RMS force accuracy = 0.0409794
  estimated relative force accuracy = 0.000123408
  3d grid and FFT values/proc = 1521 256
Loop time of 7.84707 on 16 procs for 5000 steps with 1080 atoms

unfix pysimm_md
write_dump all custom pysimm.dump.tmp id q x y z vx vy vz
quit

################################################################################
##################################    Init    ##################################
################################################################################
units           real
atom_style      full
pair_style      lj/cut/coul/long 12.0  12.0
kspace_style    pppm 1e-4
bond_style      harmonic
angle_style     harmonic
dihedral_style  fourier
improper_style  cvff
special_bonds   amber
pair_modify     mix arithmetic
read_data       temp.lmps
  orthogonal box = (-152.646 -152.646 -152.646) to (152.646 152.646 152.646)
  reading atoms ...
  966 atoms
  reading velocities ...
  966 velocities
  scanning bonds ...
  scanning angles ...
  scanning dihedrals ...
  scanning impropers ...
  reading bonds ...
  1056 bonds
  reading angles ...
  1889 angles
  reading dihedrals ...
  2997 dihedrals
  reading impropers ...
  273 impropers
################################################################################

min_style cg
minimize 1e-05 1e-05 10000 100000
PPPM initialization ...
  G vector (1/distance) = 0.0777387
  grid = 20 20 20
  stencil order = 5
  estimated absolute RMS force accuracy = 0.0342028
  estimated relative force accuracy = 0.000103001
  3d grid and FFT values/proc = 2250 800
  update every 1 steps, delay 0 steps, check yes
Loop time of 0.138422 on 16 procs for 9 steps with 966 atoms

Minimization stats:
  Stopping criterion = linesearch alpha is zero
  Energy initial, next-to-last, final =
  Force two-norm initial, final = 71.0389 59.282
  Force max component initial, final = 9.81249 10.2386
  Final line search alpha, max atom move = 2.04848e-12 2.09735e-11
  Iterations, force evaluations = 9 79

timestep        1
fix             pysimm_md all nvt temp 300 300 100
run             5000
PPPM initialization ...
  G vector (1/distance) = 0.0777387
  grid = 20 20 20
  stencil order = 5
  estimated absolute RMS force accuracy = 0.0342028
  estimated relative force accuracy = 0.000103001
  3d grid and FFT values/proc = 2250 800
Loop time of 4.51415 on 16 procs for 5000 steps with 966 atoms

unfix pysimm_md
write_dump all custom pysimm.dump.tmp id q x y z vx vy vz
quit

################################################################################
##################################    Init    ##################################
################################################################################
units           real
atom_style      full
pair_style      lj/cut/coul/long 12.0  12.0
kspace_style    pppm 1e-4
bond_style      harmonic
angle_style     harmonic
dihedral_style  fourier
improper_style  cvff
special_bonds   amber
pair_modify     mix arithmetic
read_data       temp.lmps
  orthogonal box = (-75.2135 -75.2135 -75.2135) to (75.2135 75.2135 75.2135)
  reading atoms ...
  972 atoms
  reading velocities ...
  972 velocities
  scanning bonds ...
  scanning angles ...
  scanning dihedrals ...
  scanning impropers ...
  reading bonds ...
  1062 bonds
  reading angles ...
  1899 angles
  reading dihedrals ...
  3009 dihedrals
  reading impropers ...
  273 impropers
################################################################################

min_style cg
minimize 1e-05 1e-05 10000 100000
PPPM initialization ...
  G vector (1/distance) = 0.111068
  grid = 16 16 16
  stencil order = 5
  estimated absolute RMS force accuracy = 0.0401644
  estimated relative force accuracy = 0.000120954
  3d grid and FFT values/proc = 1521 256
  update every 1 steps, delay 0 steps, check yes
Loop time of 0.42157 on 16 procs for 35 steps with 972 atoms

Minimization stats:
  Stopping criterion = linesearch alpha is zero
  Energy initial, next-to-last, final =
  Force two-norm initial, final = 57.0527 41.4637
  Force max component initial, final = 8.63298 4.35523
  Final line search alpha, max atom move = 6.92668e-12 3.01673e-11
  Iterations, force evaluations = 35 127

timestep        1
fix             pysimm_md all nvt temp 300 300 100
run             5000
PPPM initialization ...
  G vector (1/distance) = 0.111068
  grid = 16 16 16
  stencil order = 5
  estimated absolute RMS force accuracy = 0.0401644
  estimated relative force accuracy = 0.000120954
  3d grid and FFT values/proc = 1521 256
Loop time of 6.8576 on 16 procs for 5000 steps with 972 atoms

unfix pysimm_md
write_dump all custom pysimm.dump.tmp id q x y z vx vy vz
quit

################################################################################
##################################    Init    ##################################
################################################################################
units           real
atom_style      full
pair_style      lj/cut/coul/long 12.0  12.0
kspace_style    pppm 1e-4
bond_style      harmonic
angle_style     harmonic
dihedral_style  fourier
improper_style  cvff
special_bonds   amber
pair_modify     mix arithmetic
read_data       temp.lmps
  orthogonal box = (-155.861 -155.861 -155.861) to (155.861 155.861 155.861)
  reading atoms ...
  978 atoms
  reading velocities ...
  978 velocities
  scanning bonds ...
  scanning angles ...
  scanning dihedrals ...
  scanning impropers ...
  reading bonds ...
  1068 bonds
  reading angles ...
  1912 angles
  reading dihedrals ...
  3029 dihedrals
  reading impropers ...
  273 impropers
################################################################################

min_style cg
minimize 1e-05 1e-05 10000 100000
PPPM initialization ...
  G vector (1/distance) = 0.0764621
  grid = 20 20 20
  stencil order = 5
  estimated absolute RMS force accuracy = 0.0344546
  estimated relative force accuracy = 0.000103759
  3d grid and FFT values/proc = 2250 800
  update every 1 steps, delay 0 steps, check yes
Loop time of 0.345318 on 16 procs for 2 steps with 978 atoms

Minimization stats:
  Stopping criterion = linesearch alpha is zero
  Energy initial, next-to-last, final =
  Force two-norm initial, final = 70.7895 45.7694
  Force max component initial, final = 11.6472 5.99931
  Final line search alpha, max atom move = 3.0204e-12 1.81203e-11
  Iterations, force evaluations = 2 66

timestep        1
fix             pysimm_md all nvt temp 300 300 100
run             5000
PPPM initialization ...
  G vector (1/distance) = 0.0764621
  grid = 20 20 20
  stencil order = 5
  estimated absolute RMS force accuracy = 0.0344546
  estimated relative force accuracy = 0.000103759
  3d grid and FFT values/proc = 2250 800
Loop time of 13.0983 on 16 procs for 5000 steps with 978 atoms

unfix pysimm_md
write_dump all custom pysimm.dump.tmp id q x y z vx vy vz
quit

################################################################################
##################################    Init    ##################################
################################################################################
units           real
atom_style      full
pair_style      lj/cut/coul/long 12.0  12.0
kspace_style    pppm 1e-4
bond_style      harmonic
angle_style     harmonic
dihedral_style  fourier
improper_style  cvff
special_bonds   amber
pair_modify     mix arithmetic
read_data       temp.lmps
  orthogonal box = (-157.419 -157.419 -157.419) to (157.419 157.419 157.419)
  reading atoms ...
  1044 atoms
  reading velocities ...
  1044 velocities
  scanning bonds ...
  scanning angles ...
  scanning dihedrals ...
  scanning impropers ...
  reading bonds ...
  1141 bonds
  reading angles ...
  2041 angles
  reading dihedrals ...
  3237 dihedrals
  reading impropers ...
  294 impropers
################################################################################

min_style cg
minimize 1e-05 1e-05 10000 100000
PPPM initialization ...
  G vector (1/distance) = 0.0758575
  grid = 20 20 20
  stencil order = 5
  estimated absolute RMS force accuracy = 0.0354359
  estimated relative force accuracy = 0.000106714
  3d grid and FFT values/proc = 2250 800
  update every 1 steps, delay 0 steps, check yes
Loop time of 0.232844 on 16 procs for 5 steps with 1044 atoms

Minimization stats:
  Stopping criterion = linesearch alpha is zero
  Energy initial, next-to-last, final =
  Force two-norm initial, final = 88.4427 61.6285
  Force max component initial, final = 15.9198 9.31001
  Final line search alpha, max atom move = 2.78613e-12 2.59389e-11
  Iterations, force evaluations = 5 71

timestep        1
fix             pysimm_md all nvt temp 300 300 100
run             5000
PPPM initialization ...
  G vector (1/distance) = 0.0758575
  grid = 20 20 20
  stencil order = 5
  estimated absolute RMS force accuracy = 0.0354359
  estimated relative force accuracy = 0.000106714
  3d grid and FFT values/proc = 2250 800
Loop time of 6.54227 on 16 procs for 5000 steps with 1044 atoms

unfix pysimm_md
write_dump all custom pysimm.dump.tmp id q x y z vx vy vz
quit

################################################################################
##################################    Init    ##################################
################################################################################
units           real
atom_style      full
pair_style      lj/cut/coul/long 12.0  12.0
kspace_style    pppm 1e-4
bond_style      harmonic
angle_style     harmonic
dihedral_style  fourier
improper_style  cvff
special_bonds   amber
pair_modify     mix arithmetic
read_data       temp.lmps
  orthogonal box = (-158.948 -158.948 -158.948) to (158.948 158.948 158.948)
  reading atoms ...
  1170 atoms
  reading velocities ...
  1170 velocities
  scanning bonds ...
  scanning angles ...
  scanning dihedrals ...
  scanning impropers ...
  reading bonds ...
  1281 bonds
  reading angles ...
  2288 angles
  reading dihedrals ...
  3633 dihedrals
  reading impropers ...
  336 impropers
################################################################################

min_style cg
minimize 1e-05 1e-05 10000 100000
PPPM initialization ...
  G vector (1/distance) = 0.0868008
  grid = 24 24 24
  stencil order = 5
  estimated absolute RMS force accuracy = 0.0284274
  estimated relative force accuracy = 8.56081e-05
  3d grid and FFT values/proc = 3179 1152
  update every 1 steps, delay 0 steps, check yes
Loop time of 0.0969645 on 16 procs for 9 steps with 1170 atoms

Minimization stats:
  Stopping criterion = energy tolerance
  Energy initial, next-to-last, final =
  Force two-norm initial, final = 235.199 266.155
  Force max component initial, final = 44.2729 43.2468
  Final line search alpha, max atom move = 0.000839018 0.0362849
  Iterations, force evaluations = 9 20

timestep        1
fix             pysimm_md all nvt temp 300 300 100
run             5000
PPPM initialization ...
  G vector (1/distance) = 0.0868008
  grid = 24 24 24
  stencil order = 5
  estimated absolute RMS force accuracy = 0.0284274
  estimated relative force accuracy = 8.56081e-05
  3d grid and FFT values/proc = 3179 1152
Loop time of 7.8061 on 16 procs for 5000 steps with 1170 atoms

unfix pysimm_md
write_dump all custom pysimm.dump.tmp id q x y z vx vy vz
quit

################################################################################
##################################    Init    ##################################
################################################################################
units           real
atom_style      full
pair_style      lj/cut/coul/long 12.0  12.0
kspace_style    pppm 1e-4
bond_style      harmonic
angle_style     harmonic
dihedral_style  fourier
improper_style  cvff
special_bonds   amber
pair_modify     mix arithmetic
read_data       temp.lmps
  orthogonal box = (-160.447 -160.447 -160.447) to (160.447 160.447 160.447)
  reading atoms ...
  1056 atoms
  reading velocities ...
  1056 velocities
  scanning bonds ...
  scanning angles ...
  scanning dihedrals ...
  scanning impropers ...
  reading bonds ...
  1153 bonds
  reading angles ...
  2065 angles
  reading dihedrals ...
  3275 dihedrals
  reading impropers ...
  294 impropers
################################################################################

min_style cg
minimize 1e-05 1e-05 10000 100000
PPPM initialization ...
  G vector (1/distance) = 0.0747092
  grid = 20 20 20
  stencil order = 5
  estimated absolute RMS force accuracy = 0.0356415
  estimated relative force accuracy = 0.000107333
  3d grid and FFT values/proc = 2250 800
  update every 1 steps, delay 0 steps, check yes
Loop time of 0.280262 on 16 procs for 12 steps with 1056 atoms

Minimization stats:
  Stopping criterion = linesearch alpha is zero
  Energy initial, next-to-last, final =
  Force two-norm initial, final = 81.3774 53.5293
  Force max component initial, final = 9.82269 6.64098
  Final line search alpha, max atom move = 2.82223e-12 1.87424e-11
  Iterations, force evaluations = 12 85

timestep        1
fix             pysimm_md all nvt temp 300 300 100
run             5000
PPPM initialization ...
  G vector (1/distance) = 0.0747092
  grid = 20 20 20
  stencil order = 5
  estimated absolute RMS force accuracy = 0.0356415
  estimated relative force accuracy = 0.000107333
  3d grid and FFT values/proc = 2250 800
Loop time of 5.263 on 16 procs for 5000 steps with 1056 atoms

unfix pysimm_md
write_dump all custom pysimm.dump.tmp id q x y z vx vy vz
quit

################################################################################
##################################    Init    ##################################
################################################################################
units           real
atom_style      full
pair_style      lj/cut/coul/long 12.0  12.0
kspace_style    pppm 1e-4
bond_style      harmonic
angle_style     harmonic
dihedral_style  fourier
improper_style  cvff
special_bonds   amber
pair_modify     mix arithmetic
read_data       temp.lmps
  orthogonal box = (-161.919 -161.919 -161.919) to (161.919 161.919 161.919)
  reading atoms ...
  1362 atoms
  reading velocities ...
  1362 velocities
  scanning bonds ...
  scanning angles ...
  scanning dihedrals ...
  scanning impropers ...
  reading bonds ...
  1494 bonds
  reading angles ...
  2662 angles
  reading dihedrals ...
  4233 dihedrals
  reading impropers ...
  399 impropers
################################################################################

min_style cg
minimize 1e-05 1e-05 10000 100000
PPPM initialization ...
  G vector (1/distance) = 0.0855813
  grid = 24 24 24
  stencil order = 5
  estimated absolute RMS force accuracy = 0.0305366
  estimated relative force accuracy = 9.19601e-05
  3d grid and FFT values/proc = 3179 1152
  update every 1 steps, delay 0 steps, check yes
Loop time of 0.886175 on 16 procs for 36 steps with 1362 atoms

Minimization stats:
  Stopping criterion = linesearch alpha is zero
  Energy initial, next-to-last, final =
  Force two-norm initial, final = 95.5659 49.0261
  Force max component initial, final = 11.485 4.74474
  Final line search alpha, max atom move = 4.31605e-12 2.04786e-11
  Iterations, force evaluations = 36 131

timestep        1
fix             pysimm_md all nvt temp 300 300 100
run             5000
PPPM initialization ...
  G vector (1/distance) = 0.0855813
  grid = 24 24 24
  stencil order = 5
  estimated absolute RMS force accuracy = 0.0305366
  estimated relative force accuracy = 9.19601e-05
  3d grid and FFT values/proc = 3179 1152
Loop time of 14.3271 on 16 procs for 5000 steps with 1362 atoms

unfix pysimm_md
write_dump all custom pysimm.dump.tmp id q x y z vx vy vz
quit

################################################################################
##################################    Init    ##################################
################################################################################
units           real
atom_style      full
pair_style      lj/cut/coul/long 12.0  12.0
kspace_style    pppm 1e-4
bond_style      harmonic
angle_style     harmonic
dihedral_style  fourier
improper_style  cvff
special_bonds   amber
pair_modify     mix arithmetic
read_data       temp.lmps
  orthogonal box = (-79.6478 -79.6478 -79.6478) to (79.6478 79.6478 79.6478)
  reading atoms ...
  1368 atoms
  reading velocities ...
  1368 velocities
  scanning bonds ...
  scanning angles ...
  scanning dihedrals ...
  scanning impropers ...
  reading bonds ...
  1500 bonds
  reading angles ...
  2673 angles
  reading dihedrals ...
  4249 dihedrals
  reading impropers ...
  399 impropers
################################################################################

min_style cg
minimize 1e-05 1e-05 10000 100000
PPPM initialization ...
  G vector (1/distance) = 0.115638
  grid = 18 18 18
  stencil order = 5
  estimated absolute RMS force accuracy = 0.0371876
  estimated relative force accuracy = 0.000111989
  3d grid and FFT values/proc = 1960 648
  update every 1 steps, delay 0 steps, check yes
Loop time of 0.47299 on 16 procs for 47 steps with 1368 atoms

Minimization stats:
  Stopping criterion = linesearch alpha is zero
  Energy initial, next-to-last, final =
  Force two-norm initial, final = 62.3028 37.4952
  Force max component initial, final = 10.1094 5.45683
  Final line search alpha, max atom move = 7.20683e-12 3.93264e-11
  Iterations, force evaluations = 47 151

timestep        1
fix             pysimm_md all nvt temp 300 300 100
run             5000
PPPM initialization ...
  G vector (1/distance) = 0.115638
  grid = 18 18 18
  stencil order = 5
  estimated absolute RMS force accuracy = 0.0371876
  estimated relative force accuracy = 0.000111989
  3d grid and FFT values/proc = 1960 648
Loop time of 7.08836 on 16 procs for 5000 steps with 1368 atoms

unfix pysimm_md
write_dump all custom pysimm.dump.tmp id q x y z vx vy vz
quit

################################################################################
##################################    Init    ##################################
################################################################################
units           real
atom_style      full
pair_style      lj/cut/coul/long 12.0  12.0
kspace_style    pppm 1e-4
bond_style      harmonic
angle_style     harmonic
dihedral_style  fourier
improper_style  cvff
special_bonds   amber
pair_modify     mix arithmetic
read_data       temp.lmps
  orthogonal box = (-164.786 -164.786 -164.786) to (164.786 164.786 164.786)
  reading atoms ...
  1314 atoms
  reading velocities ...
  1314 velocities
  scanning bonds ...
  scanning angles ...
  scanning dihedrals ...
  scanning impropers ...
  reading bonds ...
  1439 bonds
  reading angles ...
  2569 angles
  reading dihedrals ...
  4081 dihedrals
  reading impropers ...
  378 impropers
################################################################################

min_style cg
minimize 1e-05 1e-05 10000 100000
PPPM initialization ...
  G vector (1/distance) = 0.0844366
  grid = 24 24 24
  stencil order = 5
  estimated absolute RMS force accuracy = 0.0302344
  estimated relative force accuracy = 9.10501e-05
  3d grid and FFT values/proc = 3179 1152
  update every 1 steps, delay 0 steps, check yes
Loop time of 0.367023 on 16 procs for 28 steps with 1314 atoms

Minimization stats:
  Stopping criterion = linesearch alpha is zero
  Energy initial, next-to-last, final =
  Force two-norm initial, final = 92.4511 68.1928
  Force max component initial, final = 12.4621 8.55632
  Final line search alpha, max atom move = 2.34093e-12 2.00297e-11
  Iterations, force evaluations = 28 115

timestep        1
fix             pysimm_md all nvt temp 300 300 100
run             5000
PPPM initialization ...
  G vector (1/distance) = 0.0844366
  grid = 24 24 24
  stencil order = 5
  estimated absolute RMS force accuracy = 0.0302344
  estimated relative force accuracy = 9.10501e-05
  3d grid and FFT values/proc = 3179 1152
Loop time of 6.12579 on 16 procs for 5000 steps with 1314 atoms

unfix pysimm_md
write_dump all custom pysimm.dump.tmp id q x y z vx vy vz
quit

################################################################################
##################################    Init    ##################################
################################################################################
units           real
atom_style      full
pair_style      lj/cut/coul/long 12.0  12.0
kspace_style    pppm 1e-4
bond_style      harmonic
angle_style     harmonic
dihedral_style  fourier
improper_style  cvff
special_bonds   amber
pair_modify     mix arithmetic
read_data       temp.lmps
  orthogonal box = (-81.0213 -81.0213 -81.0213) to (81.0213 81.0213 81.0213)
  reading atoms ...
  1140 atoms
  reading velocities ...
  1140 velocities
  scanning bonds ...
  scanning angles ...
  scanning dihedrals ...
  scanning impropers ...
  reading bonds ...
  1244 bonds
  reading angles ...
  2230 angles
  reading dihedrals ...
  3533 dihedrals
  reading impropers ...
  315 impropers
################################################################################

min_style cg
minimize 1e-05 1e-05 10000 100000
PPPM initialization ...
  G vector (1/distance) = 0.114339
  grid = 18 18 18
  stencil order = 5
  estimated absolute RMS force accuracy = 0.0351726
  estimated relative force accuracy = 0.000105921
  3d grid and FFT values/proc = 1960 648
  update every 1 steps, delay 0 steps, check yes
Loop time of 0.527392 on 16 procs for 83 steps with 1140 atoms

Minimization stats:
  Stopping criterion = linesearch alpha is zero
  Energy initial, next-to-last, final =
  Force two-norm initial, final = 55.8191 37.7346
  Force max component initial, final = 5.47141 4.28176
  Final line search alpha, max atom move = 7.60709e-12 3.25718e-11
  Iterations, force evaluations = 83 223

timestep        1
fix             pysimm_md all nvt temp 300 300 100
run             5000
PPPM initialization ...
  G vector (1/distance) = 0.114339
  grid = 18 18 18
  stencil order = 5
  estimated absolute RMS force accuracy = 0.0351726
  estimated relative force accuracy = 0.000105921
  3d grid and FFT values/proc = 1960 648
Loop time of 4.73784 on 16 procs for 5000 steps with 1140 atoms

unfix pysimm_md
write_dump all custom pysimm.dump.tmp id q x y z vx vy vz
quit

################################################################################
##################################    Init    ##################################
################################################################################
units           real
atom_style      full
pair_style      lj/cut/coul/long 12.0  12.0
kspace_style    pppm 1e-4
bond_style      harmonic
angle_style     harmonic
dihedral_style  fourier
improper_style  cvff
special_bonds   amber
pair_modify     mix arithmetic
read_data       temp.lmps
  orthogonal box = (-167.556 -167.556 -167.556) to (167.556 167.556 167.556)
  reading atoms ...
  1326 atoms
  reading velocities ...
  1326 velocities
  scanning bonds ...
  scanning angles ...
  scanning dihedrals ...
  scanning impropers ...
  reading bonds ...
  1451 bonds
  reading angles ...
  2594 angles
  reading dihedrals ...
  4120 dihedrals
  reading impropers ...
  378 impropers
################################################################################

min_style cg
minimize 1e-05 1e-05 10000 100000
PPPM initialization ...
  G vector (1/distance) = 0.0833579
  grid = 24 24 24
  stencil order = 5
  estimated absolute RMS force accuracy = 0.0304986
  estimated relative force accuracy = 9.18455e-05
  3d grid and FFT values/proc = 3179 1152
  update every 1 steps, delay 0 steps, check yes
Loop time of 0.253005 on 16 procs for 20 steps with 1326 atoms

Minimization stats:
  Stopping criterion = linesearch alpha is zero
  Energy initial, next-to-last, final =
  Force two-norm initial, final = 86.482 60.0954
  Force max component initial, final = 11.6661 6.97869
  Final line search alpha, max atom move = 2.63663e-12 1.84002e-11
  Iterations, force evaluations = 20 99

timestep        1
fix             pysimm_md all nvt temp 300 300 100
run             5000
PPPM initialization ...
  G vector (1/distance) = 0.0833579
  grid = 24 24 24
  stencil order = 5
  estimated absolute RMS force accuracy = 0.0304986
  estimated relative force accuracy = 9.18455e-05
  3d grid and FFT values/proc = 3179 1152
Loop time of 5.38018 on 16 procs for 5000 steps with 1326 atoms

unfix pysimm_md
write_dump all custom pysimm.dump.tmp id q x y z vx vy vz
quit

################################################################################
##################################    Init    ##################################
################################################################################
units           real
atom_style      full
pair_style      lj/cut/coul/long 12.0  12.0
kspace_style    pppm 1e-4
bond_style      harmonic
angle_style     harmonic
dihedral_style  fourier
improper_style  cvff
special_bonds   amber
pair_modify     mix arithmetic
read_data       temp.lmps
  orthogonal box = (-168.907 -168.907 -168.907) to (168.907 168.907 168.907)
  reading atoms ...
  1572 atoms
  reading velocities ...
  1572 velocities
  scanning bonds ...
  scanning angles ...
  scanning dihedrals ...
  scanning impropers ...
  reading bonds ...
  1725 bonds
  reading angles ...
  3074 angles
  reading dihedrals ...
  4891 dihedrals
  reading impropers ...
  462 impropers
################################################################################

min_style cg
minimize 1e-05 1e-05 10000 100000
PPPM initialization ...
  G vector (1/distance) = 0.0828405
  grid = 24 24 24
  stencil order = 5
  estimated absolute RMS force accuracy = 0.0328711
  estimated relative force accuracy = 9.89903e-05
  3d grid and FFT values/proc = 3179 1152
  update every 1 steps, delay 0 steps, check yes
Loop time of 0.0916259 on 16 procs for 10 steps with 1572 atoms

Minimization stats:
  Stopping criterion = energy tolerance
  Energy initial, next-to-last, final =
  Force two-norm initial, final = 156.747 206.311
  Force max component initial, final = 77.811 70.9406
  Final line search alpha, max atom move = 0.0025649 0.181955
  Iterations, force evaluations = 10 20

timestep        1
fix             pysimm_md all nvt temp 300 300 100
run             5000
PPPM initialization ...
  G vector (1/distance) = 0.0828405
  grid = 24 24 24
  stencil order = 5
  estimated absolute RMS force accuracy = 0.0328711
  estimated relative force accuracy = 9.89903e-05
  3d grid and FFT values/proc = 3179 1152
Loop time of 8.53092 on 16 procs for 5000 steps with 1572 atoms

unfix pysimm_md
write_dump all custom pysimm.dump.tmp id q x y z vx vy vz
quit

################################################################################
##################################    Init    ##################################
################################################################################
units           real
atom_style      full
pair_style      lj/cut/coul/long 12.0  12.0
kspace_style    pppm 1e-4
bond_style      harmonic
angle_style     harmonic
dihedral_style  fourier
improper_style  cvff
special_bonds   amber
pair_modify     mix arithmetic
read_data       temp.lmps
  orthogonal box = (-82.9982 -82.9982 -82.9982) to (82.9982 82.9982 82.9982)
  reading atoms ...
  1518 atoms
  reading velocities ...
  1518 velocities
  scanning bonds ...
  scanning angles ...
  scanning dihedrals ...
  scanning impropers ...
  reading bonds ...
  1664 bonds
  reading angles ...
  2967 angles
  reading dihedrals ...
  4715 dihedrals
  reading impropers ...
  441 impropers
################################################################################

min_style cg
minimize 1e-05 1e-05 10000 100000
PPPM initialization ...
  G vector (1/distance) = 0.112517
  grid = 18 18 18
  stencil order = 5
  estimated absolute RMS force accuracy = 0.0408568
  estimated relative force accuracy = 0.000123039
  3d grid and FFT values/proc = 1960 648
  update every 1 steps, delay 0 steps, check yes
Loop time of 0.81224 on 16 procs for 107 steps with 1518 atoms

Minimization stats:
  Stopping criterion = linesearch alpha is zero
  Energy initial, next-to-last, final =
  Force two-norm initial, final = 130.638 51.4242
  Force max component initial, final = 50.8176 14.7782
  Final line search alpha, max atom move = 3.72439e-12 5.504e-11
  Iterations, force evaluations = 107 271

timestep        1
fix             pysimm_md all nvt temp 300 300 100
run             5000
PPPM initialization ...
  G vector (1/distance) = 0.112517
  grid = 18 18 18
  stencil order = 5
  estimated absolute RMS force accuracy = 0.0408568
  estimated relative force accuracy = 0.000123039
  3d grid and FFT values/proc = 1960 648
Loop time of 6.23805 on 16 procs for 5000 steps with 1518 atoms

unfix pysimm_md
write_dump all custom pysimm.dump.tmp id q x y z vx vy vz
quit

################################################################################
##################################    Init    ##################################
################################################################################
units           real
atom_style      full
pair_style      lj/cut/coul/long 12.0  12.0
kspace_style    pppm 1e-4
bond_style      harmonic
angle_style     harmonic
dihedral_style  fourier
improper_style  cvff
special_bonds   amber
pair_modify     mix arithmetic
read_data       temp.lmps
  orthogonal box = (-171.547 -171.547 -171.547) to (171.547 171.547 171.547)
  reading atoms ...
  1704 atoms
  reading velocities ...
  1704 velocities
  scanning bonds ...
  scanning angles ...
  scanning dihedrals ...
  scanning impropers ...
  reading bonds ...
  1871 bonds
  reading angles ...
  3332 angles
  reading dihedrals ...
  5304 dihedrals
  reading impropers ...
  504 impropers
################################################################################

min_style cg
minimize 1e-05 1e-05 10000 100000
PPPM initialization ...
  G vector (1/distance) = 0.0818486
  grid = 24 24 24
  stencil order = 5
  estimated absolute RMS force accuracy = 0.0341555
  estimated relative force accuracy = 0.000102858
  3d grid and FFT values/proc = 3179 1152
  update every 1 steps, delay 0 steps, check yes
Loop time of 0.429992 on 16 procs for 21 steps with 1704 atoms

Minimization stats:
  Stopping criterion = linesearch alpha is zero
  Energy initial, next-to-last, final =
  Force two-norm initial, final = 115.508 86.841
  Force max component initial, final = 13.6772 9.22236
  Final line search alpha, max atom move = 1.36411e-12 1.25803e-11
  Iterations, force evaluations = 21 103

timestep        1
fix             pysimm_md all nvt temp 300 300 100
run             5000
PPPM initialization ...
  G vector (1/distance) = 0.0818486
  grid = 24 24 24
  stencil order = 5
  estimated absolute RMS force accuracy = 0.0341555
  estimated relative force accuracy = 0.000102858
  3d grid and FFT values/proc = 3179 1152
Loop time of 9.87562 on 16 procs for 5000 steps with 1704 atoms

unfix pysimm_md
write_dump all custom pysimm.dump.tmp id q x y z vx vy vz
quit

################################################################################
##################################    Init    ##################################
################################################################################
units           real
atom_style      full
pair_style      lj/cut/coul/long 12.0  12.0
kspace_style    pppm 1e-4
bond_style      harmonic
angle_style     harmonic
dihedral_style  fourier
improper_style  cvff
special_bonds   amber
pair_modify     mix arithmetic
read_data       temp.lmps
  orthogonal box = (-84.2656 -84.2656 -84.2656) to (84.2656 84.2656 84.2656)
  reading atoms ...
  1650 atoms
  reading velocities ...
  1650 velocities
  scanning bonds ...
  scanning angles ...
  scanning dihedrals ...
  scanning impropers ...
  reading bonds ...
  1810 bonds
  reading angles ...
  3225 angles
  reading dihedrals ...
  5133 dihedrals
  reading impropers ...
  483 impropers
################################################################################

min_style cg
minimize 1e-05 1e-05 10000 100000
PPPM initialization ...
  G vector (1/distance) = 0.119389
  grid = 20 20 20
  stencil order = 5
  estimated absolute RMS force accuracy = 0.0330142
  estimated relative force accuracy = 9.94214e-05
  3d grid and FFT values/proc = 2250 800
  update every 1 steps, delay 0 steps, check yes
Loop time of 0.776601 on 16 procs for 78 steps with 1650 atoms

Minimization stats:
  Stopping criterion = energy tolerance
  Energy initial, next-to-last, final =
  Force two-norm initial, final = 67.9628 34.4269
  Force max component initial, final = 9.06326 4.01701
  Final line search alpha, max atom move = 0.00190799 0.00766441
  Iterations, force evaluations = 78 158

timestep        1
fix             pysimm_md all nvt temp 300 300 100
run             5000
PPPM initialization ...
  G vector (1/distance) = 0.119389
  grid = 20 20 20
  stencil order = 5
  estimated absolute RMS force accuracy = 0.0330142
  estimated relative force accuracy = 9.94214e-05
  3d grid and FFT values/proc = 2250 800
Loop time of 10.5801 on 16 procs for 5000 steps with 1650 atoms

unfix pysimm_md
write_dump all custom pysimm.dump.tmp id q x y z vx vy vz
quit

################################################################################
##################################    Init    ##################################
################################################################################
units           real
atom_style      full
pair_style      lj/cut/coul/long 12.0  12.0
kspace_style    pppm 1e-4
bond_style      harmonic
angle_style     harmonic
dihedral_style  fourier
improper_style  cvff
special_bonds   amber
pair_modify     mix arithmetic
read_data       temp.lmps
  orthogonal box = (-84.8852 -84.8852 -84.8852) to (84.8852 84.8852 84.8852)
  reading atoms ...
  1656 atoms
  reading velocities ...
  1656 velocities
  scanning bonds ...
  scanning angles ...
  scanning dihedrals ...
  scanning impropers ...
  reading bonds ...
  1816 bonds
  reading angles ...
  3237 angles
  reading dihedrals ...
  5149 dihedrals
  reading impropers ...
  483 impropers
################################################################################

min_style cg
minimize 1e-05 1e-05 10000 100000
PPPM initialization ...
  G vector (1/distance) = 0.118825
  grid = 20 20 20
  stencil order = 5
  estimated absolute RMS force accuracy = 0.0333933
  estimated relative force accuracy = 0.000100563
  3d grid and FFT values/proc = 2250 800
  update every 1 steps, delay 0 steps, check yes
Loop time of 0.930949 on 16 procs for 108 steps with 1656 atoms

Minimization stats:
  Stopping criterion = energy tolerance
  Energy initial, next-to-last, final =
  Force two-norm initial, final = 69.1626 36.2787
  Force max component initial, final = 10.3585 4.38271
  Final line search alpha, max atom move = 0.00182237 0.00798691
  Iterations, force evaluations = 108 218

timestep        1
fix             pysimm_md all nvt temp 300 300 100
run             5000
PPPM initialization ...
  G vector (1/distance) = 0.118825
  grid = 20 20 20
  stencil order = 5
  estimated absolute RMS force accuracy = 0.0333933
  estimated relative force accuracy = 0.000100563
  3d grid and FFT values/proc = 2250 800
Loop time of 8.6492 on 16 procs for 5000 steps with 1656 atoms

unfix pysimm_md
write_dump all custom pysimm.dump.tmp id q x y z vx vy vz
quit

################################################################################
##################################    Init    ##################################
################################################################################
units           real
atom_style      full
pair_style      lj/cut/coul/long 12.0  12.0
kspace_style    pppm 1e-4
bond_style      harmonic
angle_style     harmonic
dihedral_style  fourier
improper_style  cvff
special_bonds   amber
pair_modify     mix arithmetic
read_data       temp.lmps
  orthogonal box = (-85.4959 -85.4959 -85.4959) to (85.4959 85.4959 85.4959)
  reading atoms ...
  1542 atoms
  reading velocities ...
  1542 velocities
  scanning bonds ...
  scanning angles ...
  scanning dihedrals ...
  scanning impropers ...
  reading bonds ...
  1688 bonds
  reading angles ...
  3015 angles
  reading dihedrals ...
  4789 dihedrals
  reading impropers ...
  441 impropers
################################################################################

min_style cg
minimize 1e-05 1e-05 10000 100000
PPPM initialization ...
  G vector (1/distance) = 0.118275
  grid = 20 20 20
  stencil order = 5
  estimated absolute RMS force accuracy = 0.0327028
  estimated relative force accuracy = 9.84834e-05
  3d grid and FFT values/proc = 2250 800
  update every 1 steps, delay 0 steps, check yes
Loop time of 1.06654 on 16 procs for 119 steps with 1542 atoms

Minimization stats:
  Stopping criterion = linesearch alpha is zero
  Energy initial, next-to-last, final =
  Force two-norm initial, final = 63.6707 32.3253
  Force max component initial, final = 8.26423 3.74915
  Final line search alpha, max atom move = 6.82503e-12 2.55881e-11
  Iterations, force evaluations = 119 295

timestep        1
fix             pysimm_md all nvt temp 300 300 100
run             5000
PPPM initialization ...
  G vector (1/distance) = 0.118275
  grid = 20 20 20
  stencil order = 5
  estimated absolute RMS force accuracy = 0.0327028
  estimated relative force accuracy = 9.84834e-05
  3d grid and FFT values/proc = 2250 800
Loop time of 9.26709 on 16 procs for 5000 steps with 1542 atoms

unfix pysimm_md
write_dump all custom pysimm.dump.tmp id q x y z vx vy vz
quit

################################################################################
##################################    Init    ##################################
################################################################################
units           real
atom_style      full
pair_style      lj/cut/coul/long 12.0  12.0
kspace_style    pppm 1e-4
bond_style      harmonic
angle_style     harmonic
dihedral_style  fourier
improper_style  cvff
special_bonds   amber
pair_modify     mix arithmetic
read_data       temp.lmps
  orthogonal box = (-86.098 -86.098 -86.098) to (86.098 86.098 86.098)
  reading atoms ...
  1308 atoms
  reading velocities ...
  1308 velocities
  scanning bonds ...
  scanning angles ...
  scanning dihedrals ...
  scanning impropers ...
  reading bonds ...
  1426 bonds
  reading angles ...
  2559 angles
  reading dihedrals ...
  4051 dihedrals
  reading impropers ...
  357 impropers
################################################################################

min_style cg
minimize 1e-05 1e-05 10000 100000
PPPM initialization ...
  G vector (1/distance) = 0.117737
  grid = 20 20 20
  stencil order = 5
  estimated absolute RMS force accuracy = 0.0308222
  estimated relative force accuracy = 9.28203e-05
  3d grid and FFT values/proc = 2250 800
  update every 1 steps, delay 0 steps, check yes
Loop time of 0.285777 on 16 procs for 15 steps with 1308 atoms

Minimization stats:
  Stopping criterion = linesearch alpha is zero
  Energy initial, next-to-last, final =
  Force two-norm initial, final = 53.157 34.4644
  Force max component initial, final = 9.66382 5.48504
  Final line search alpha, max atom move = 9.34006e-12 5.12306e-11
  Iterations, force evaluations = 15 87

timestep        1
fix             pysimm_md all nvt temp 300 300 100
run             5000
PPPM initialization ...
  G vector (1/distance) = 0.117737
  grid = 20 20 20
  stencil order = 5
  estimated absolute RMS force accuracy = 0.0308222
  estimated relative force accuracy = 9.28203e-05
  3d grid and FFT values/proc = 2250 800
Loop time of 5.47847 on 16 procs for 5000 steps with 1308 atoms

unfix pysimm_md
write_dump all custom pysimm.dump.tmp id q x y z vx vy vz
quit

################################################################################
##################################    Init    ##################################
################################################################################
units           real
atom_style      full
pair_style      lj/cut/coul/long 12.0  12.0
kspace_style    pppm 1e-4
bond_style      harmonic
angle_style     harmonic
dihedral_style  fourier
improper_style  cvff
special_bonds   amber
pair_modify     mix arithmetic
read_data       temp.lmps
  orthogonal box = (-177.813 -177.813 -177.813) to (177.813 177.813 177.813)
  reading atoms ...
  2034 atoms
  reading velocities ...
  2034 velocities
  scanning bonds ...
  scanning angles ...
  scanning dihedrals ...
  scanning impropers ...
  reading bonds ...
  2236 bonds
  reading angles ...
  3977 angles
  reading dihedrals ...
  6337 dihedrals
  reading impropers ...
  609 impropers
################################################################################

min_style cg
minimize 1e-05 1e-05 10000 100000
PPPM initialization ...
  G vector (1/distance) = 0.0821658
  grid = 25 25 25
  stencil order = 5
  estimated absolute RMS force accuracy = 0.034949
  estimated relative force accuracy = 0.000105248
  3d grid and FFT values/proc = 3888 1250
  update every 1 steps, delay 0 steps, check yes
Loop time of 0.417254 on 16 procs for 16 steps with 2034 atoms

Minimization stats:
  Stopping criterion = linesearch alpha is zero
  Energy initial, next-to-last, final =
  Force two-norm initial, final = 84.7551 60.4699
  Force max component initial, final = 10.7406 7.9153
  Final line search alpha, max atom move = 1.89382e-12 1.49902e-11
  Iterations, force evaluations = 16 93

timestep        1
fix             pysimm_md all nvt temp 300 300 100
run             5000
PPPM initialization ...
  G vector (1/distance) = 0.0821658
  grid = 25 25 25
  stencil order = 5
  estimated absolute RMS force accuracy = 0.034949
  estimated relative force accuracy = 0.000105248
  3d grid and FFT values/proc = 3888 1250
Loop time of 10.1319 on 16 procs for 5000 steps with 2034 atoms

unfix pysimm_md
write_dump all custom pysimm.dump.tmp id q x y z vx vy vz
quit

################################################################################
##################################    Init    ##################################
################################################################################
units           real
atom_style      full
pair_style      lj/cut/coul/long 12.0  12.0
kspace_style    pppm 1e-4
bond_style      harmonic
angle_style     harmonic
dihedral_style  fourier
improper_style  cvff
special_bonds   amber
pair_modify     mix arithmetic
read_data       temp.lmps
  orthogonal box = (-87.2776 -87.2776 -87.2776) to (87.2776 87.2776 87.2776)
  reading atoms ...
  2040 atoms
  reading velocities ...
  2040 velocities
  scanning bonds ...
  scanning angles ...
  scanning dihedrals ...
  scanning impropers ...
  reading bonds ...
  2242 bonds
  reading angles ...
  3987 angles
  reading dihedrals ...
  6353 dihedrals
  reading impropers ...
  609 impropers
################################################################################

min_style cg
minimize 1e-05 1e-05 10000 100000
PPPM initialization ...
  G vector (1/distance) = 0.116696
  grid = 20 20 20
  stencil order = 5
  estimated absolute RMS force accuracy = 0.0379001
  estimated relative force accuracy = 0.000114135
  3d grid and FFT values/proc = 2250 800
  update every 1 steps, delay 0 steps, check yes
Loop time of 0.979769 on 16 procs for 82 steps with 2040 atoms

Minimization stats:
  Stopping criterion = linesearch alpha is zero
  Energy initial, next-to-last, final =
  Force two-norm initial, final = 265.788 43.3598
  Force max component initial, final = 82.9598 12.9155
  Final line search alpha, max atom move = 7.49492e-12 9.68006e-11
  Iterations, force evaluations = 82 222

timestep        1
fix             pysimm_md all nvt temp 300 300 100
run             5000
PPPM initialization ...
  G vector (1/distance) = 0.116696
  grid = 20 20 20
  stencil order = 5
  estimated absolute RMS force accuracy = 0.0379001
  estimated relative force accuracy = 0.000114135
  3d grid and FFT values/proc = 2250 800
Loop time of 10.5171 on 16 procs for 5000 steps with 2040 atoms

unfix pysimm_md
write_dump all custom pysimm.dump.tmp id q x y z vx vy vz
quit
