################################################################################
##################################    Init    ##################################
################################################################################
units           real
atom_style      full
pair_style      lj/cut/coul/long 12.0  12.0
kspace_style    pppm 1e-4
bond_style      harmonic
angle_style     harmonic
dihedral_style  fourier
improper_style  cvff
special_bonds   amber
pair_modify     mix arithmetic
read_data       temp.lmps
  orthogonal box = (-97.6598 -97.6598 -97.6598) to (97.6598 97.6598 97.6598)
  reading atoms ...
  634 atoms
  reading velocities ...
  634 velocities
  scanning bonds ...
  scanning angles ...
  scanning dihedrals ...
  scanning impropers ...
  reading bonds ...
  752 bonds
  reading angles ...
  1560 angles
  reading dihedrals ...
  2968 dihedrals
  reading impropers ...
  60 impropers
################################################################################

min_style cg
minimize 1e-06 1e-06 1000000 10000000
PPPM initialization ...
  G vector (1/distance) = 0.144878
  grid = 32 32 32
  stencil order = 5
  estimated absolute RMS force accuracy = 0.00206583
  estimated relative force accuracy = 6.22118e-06
  3d grid and FFT values/proc = 50653 32768
  update every 1 steps, delay 0 steps, check yes
Step Temp E_pair E_mol TotEng Press
0    200.75084    252.89282     4811.809    5443.4891   -2.6921534
Loop time of 7.37962 on 1 procs for 356 steps with 634 atoms

Minimization stats:
  Stopping criterion = linesearch alpha is zero
  Energy initial, next-to-last, final =
  Force two-norm initial, final = 859.181 5.6616
  Force max component initial, final = 310.762 0.689864
  Final line search alpha, max atom move = 3.20935e-10 2.21402e-10
  Iterations, force evaluations = 356 761

write_dump all custom pysimm.dump.tmp id q x y z vx vy vz
quit

################################################################################
##################################    Init    ##################################
################################################################################
units           real
atom_style      full
pair_style      lj/cut/coul/long 12.0  12.0
kspace_style    pppm 1e-4
bond_style      harmonic
angle_style     harmonic
dihedral_style  fourier
improper_style  cvff
special_bonds   amber
pair_modify     mix arithmetic
read_data       temp.lmps
  orthogonal box = (-123.044 -123.044 -123.044) to (123.044 123.044 123.044)
  reading atoms ...
  699 atoms
  reading velocities ...
  699 velocities
  scanning bonds ...
  scanning angles ...
  scanning dihedrals ...
  scanning impropers ...
  reading bonds ...
  828 bonds
  reading angles ...
  1716 angles
  reading dihedrals ...
  3260 dihedrals
  reading impropers ...
  66 impropers
################################################################################

min_style cg
minimize 1e-06 1e-06 1000000 10000000
PPPM initialization ...
  G vector (1/distance) = 0.144249
  grid = 40 40 40
  stencil order = 5
  estimated absolute RMS force accuracy = 0.0015714
  estimated relative force accuracy = 4.73223e-06
  3d grid and FFT values/proc = 91125 64000
  update every 1 steps, delay 0 steps, check yes
Step Temp E_pair E_mol TotEng Press
0     1123.417    283.86372    5560.6821    8181.9333   0.72395271
Loop time of 21.3718 on 1 procs for 627 steps with 699 atoms

Minimization stats:
  Stopping criterion = linesearch alpha is zero
  Energy initial, next-to-last, final =
  Force two-norm initial, final = 1047.14 7.12525
  Force max component initial, final = 279.556 0.818749
  Final line search alpha, max atom move = 1.93737e-10 1.58622e-10
  Iterations, force evaluations = 627 1303

write_dump all custom pysimm.dump.tmp id q x y z vx vy vz
quit

################################################################################
##################################    Init    ##################################
################################################################################
units           real
atom_style      full
pair_style      lj/cut/coul/long 12.0  12.0
kspace_style    pppm 1e-4
bond_style      harmonic
angle_style     harmonic
dihedral_style  fourier
improper_style  cvff
special_bonds   amber
pair_modify     mix arithmetic
read_data       temp.lmps
  orthogonal box = (-127.016 -127.016 -127.016) to (127.016 127.016 127.016)
  reading atoms ...
  764 atoms
  reading velocities ...
  764 velocities
  scanning bonds ...
  scanning angles ...
  scanning dihedrals ...
  scanning impropers ...
  reading bonds ...
  904 bonds
  reading angles ...
  1872 angles
  reading dihedrals ...
  3552 dihedrals
  reading impropers ...
  72 impropers
################################################################################

min_style cg
minimize 1e-06 1e-06 1000000 10000000
PPPM initialization ...
  G vector (1/distance) = 0.141747
  grid = 40 40 40
  stencil order = 5
  estimated absolute RMS force accuracy = 0.00173729
  estimated relative force accuracy = 5.23179e-06
  3d grid and FFT values/proc = 91125 64000
  update every 1 steps, delay 0 steps, check yes
Step Temp E_pair E_mol TotEng Press
0     1259.758    456.02954    6102.7132    9423.8836    4.6664345
Loop time of 19.9611 on 1 procs for 585 steps with 764 atoms

Minimization stats:
  Stopping criterion = linesearch alpha is zero
  Energy initial, next-to-last, final =
  Force two-norm initial, final = 2007.93 8.56266
  Force max component initial, final = 1035.63 0.888518
  Final line search alpha, max atom move = 1.49629e-10 1.32948e-10
  Iterations, force evaluations = 585 1218

write_dump all custom pysimm.dump.tmp id q x y z vx vy vz
quit

################################################################################
##################################    Init    ##################################
################################################################################
units           real
atom_style      full
pair_style      lj/cut/coul/long 12.0  12.0
kspace_style    pppm 1e-4
bond_style      harmonic
angle_style     harmonic
dihedral_style  fourier
improper_style  cvff
special_bonds   amber
pair_modify     mix arithmetic
read_data       temp.lmps
  orthogonal box = (-130.753 -130.753 -130.753) to (130.753 130.753 130.753)
  reading atoms ...
  829 atoms
  reading velocities ...
  829 velocities
  scanning bonds ...
  scanning angles ...
  scanning dihedrals ...
  scanning impropers ...
  reading bonds ...
  980 bonds
  reading angles ...
  2028 angles
  reading dihedrals ...
  3844 dihedrals
  reading impropers ...
  78 impropers
################################################################################

min_style cg
minimize 1e-06 1e-06 1000000 10000000
PPPM initialization ...
  G vector (1/distance) = 0.148813
  grid = 45 45 45
  stencil order = 5
  estimated absolute RMS force accuracy = 0.00128259
  estimated relative force accuracy = 3.86249e-06
  3d grid and FFT values/proc = 125000 91125
  update every 1 steps, delay 0 steps, check yes
Step Temp E_pair E_mol TotEng Press
0    1097.9698    5624.4975     6668.484    15002.893     82.93858
Loop time of 29.3883 on 1 procs for 621 steps with 829 atoms

Minimization stats:
  Stopping criterion = linesearch alpha is zero
  Energy initial, next-to-last, final =
  Force two-norm initial, final = 87748.7 6.30781
  Force max component initial, final = 58404.9 0.655644
  Final line search alpha, max atom move = 1.67922e-10 1.10097e-10
  Iterations, force evaluations = 621 1291

write_dump all custom pysimm.dump.tmp id q x y z vx vy vz
quit

################################################################################
##################################    Init    ##################################
################################################################################
units           real
atom_style      full
pair_style      lj/cut/coul/long 12.0  12.0
kspace_style    pppm 1e-4
bond_style      harmonic
angle_style     harmonic
dihedral_style  fourier
improper_style  cvff
special_bonds   amber
pair_modify     mix arithmetic
read_data       temp.lmps
  orthogonal box = (-134.289 -134.289 -134.289) to (134.289 134.289 134.289)
  reading atoms ...
  894 atoms
  reading velocities ...
  894 velocities
  scanning bonds ...
  scanning angles ...
  scanning dihedrals ...
  scanning impropers ...
  reading bonds ...
  1056 bonds
  reading angles ...
  2184 angles
  reading dihedrals ...
  4136 dihedrals
  reading impropers ...
  84 impropers
################################################################################

min_style cg
minimize 1e-06 1e-06 1000000 10000000
PPPM initialization ...
  G vector (1/distance) = 0.14667
  grid = 45 45 45
  stencil order = 5
  estimated absolute RMS force accuracy = 0.00140023
  estimated relative force accuracy = 4.21676e-06
  3d grid and FFT values/proc = 125000 91125
  update every 1 steps, delay 0 steps, check yes
Step Temp E_pair E_mol TotEng Press
0    918.94685    431.95838    7185.2944    10063.364   0.29253499
Loop time of 28.9176 on 1 procs for 607 steps with 894 atoms

Minimization stats:
  Stopping criterion = linesearch alpha is zero
  Energy initial, next-to-last, final =
  Force two-norm initial, final = 1627.01 11.1687
  Force max component initial, final = 528.498 1.11413
  Final line search alpha, max atom move = 5.35382e-11 5.96485e-11
  Iterations, force evaluations = 607 1264

write_dump all custom pysimm.dump.tmp id q x y z vx vy vz
quit

################################################################################
##################################    Init    ##################################
################################################################################
units           real
atom_style      full
pair_style      lj/cut/coul/long 12.0  12.0
kspace_style    pppm 1e-4
bond_style      harmonic
angle_style     harmonic
dihedral_style  fourier
improper_style  cvff
special_bonds   amber
pair_modify     mix arithmetic
read_data       temp.lmps
  orthogonal box = (-137.648 -137.648 -137.648) to (137.648 137.648 137.648)
  reading atoms ...
  959 atoms
  reading velocities ...
  959 velocities
  scanning bonds ...
  scanning angles ...
  scanning dihedrals ...
  scanning impropers ...
  reading bonds ...
  1132 bonds
  reading angles ...
  2340 angles
  reading dihedrals ...
  4428 dihedrals
  reading impropers ...
  90 impropers
################################################################################

min_style cg
minimize 1e-06 1e-06 1000000 10000000
PPPM initialization ...
  G vector (1/distance) = 0.144696
  grid = 45 45 45
  stencil order = 5
  estimated absolute RMS force accuracy = 0.00151728
  estimated relative force accuracy = 4.56924e-06
  3d grid and FFT values/proc = 125000 91125
  update every 1 steps, delay 0 steps, check yes
Step Temp E_pair E_mol TotEng Press
0    823.19204    1203.9054    7772.1812    11326.807    9.3092567
Loop time of 28.4069 on 1 procs for 590 steps with 959 atoms

Minimization stats:
  Stopping criterion = energy tolerance
  Energy initial, next-to-last, final =
  Force two-norm initial, final = 11301.9 10.2886
  Force max component initial, final = 6134.3 1.26003
  Final line search alpha, max atom move = 2.19353e-10 2.76391e-10
  Iterations, force evaluations = 590 1227

write_dump all custom pysimm.dump.tmp id q x y z vx vy vz
quit

################################################################################
##################################    Init    ##################################
################################################################################
units           real
atom_style      full
pair_style      lj/cut/coul/long 12.0  12.0
kspace_style    pppm 1e-4
bond_style      harmonic
angle_style     harmonic
dihedral_style  fourier
improper_style  cvff
special_bonds   amber
pair_modify     mix arithmetic
read_data       temp.lmps
  orthogonal box = (-140.85 -140.85 -140.85) to (140.85 140.85 140.85)
  reading atoms ...
  1024 atoms
  reading velocities ...
  1024 velocities
  scanning bonds ...
  scanning angles ...
  scanning dihedrals ...
  scanning impropers ...
  reading bonds ...
  1208 bonds
  reading angles ...
  2496 angles
  reading dihedrals ...
  4720 dihedrals
  reading impropers ...
  96 impropers
################################################################################

min_style cg
minimize 1e-06 1e-06 1000000 10000000
PPPM initialization ...
  G vector (1/distance) = 0.142875
  grid = 45 45 45
  stencil order = 5
  estimated absolute RMS force accuracy = 0.00163375
  estimated relative force accuracy = 4.91999e-06
  3d grid and FFT values/proc = 125000 91125
  update every 1 steps, delay 0 steps, check yes
Step Temp E_pair E_mol TotEng Press
0     731.0895    536.86148    8102.6411    10868.864   -1.6098186
Loop time of 24.0168 on 1 procs for 476 steps with 1024 atoms

Minimization stats:
  Stopping criterion = linesearch alpha is zero
  Energy initial, next-to-last, final =
  Force two-norm initial, final = 1949.03 12.6339
  Force max component initial, final = 598.93 1.90127
  Final line search alpha, max atom move = 3.91961e-11 7.45224e-11
  Iterations, force evaluations = 476 1001

write_dump all custom pysimm.dump.tmp id q x y z vx vy vz
quit

################################################################################
##################################    Init    ##################################
################################################################################
units           real
atom_style      full
pair_style      lj/cut/coul/long 12.0  12.0
kspace_style    pppm 1e-4
bond_style      harmonic
angle_style     harmonic
dihedral_style  fourier
improper_style  cvff
special_bonds   amber
pair_modify     mix arithmetic
read_data       temp.lmps
  orthogonal box = (-143.913 -143.913 -143.913) to (143.913 143.913 143.913)
  reading atoms ...
  1089 atoms
  reading velocities ...
  1089 velocities
  scanning bonds ...
  scanning angles ...
  scanning dihedrals ...
  scanning impropers ...
  reading bonds ...
  1284 bonds
  reading angles ...
  2652 angles
  reading dihedrals ...
  5012 dihedrals
  reading impropers ...
  102 impropers
################################################################################

min_style cg
minimize 1e-06 1e-06 1000000 10000000
PPPM initialization ...
  G vector (1/distance) = 0.141107
  grid = 45 45 45
  stencil order = 5
  estimated absolute RMS force accuracy = 0.00174815
  estimated relative force accuracy = 5.26451e-06
  3d grid and FFT values/proc = 125000 91125
  update every 1 steps, delay 0 steps, check yes
Step Temp E_pair E_mol TotEng Press
0    831.23216    1120.0854    8819.4323    12635.304     5.533655
Loop time of 34.6404 on 1 procs for 709 steps with 1089 atoms

Minimization stats:
  Stopping criterion = linesearch alpha is zero
  Energy initial, next-to-last, final =
  Force two-norm initial, final = 8783.69 12.264
  Force max component initial, final = 5153.6 1.17161
  Final line search alpha, max atom move = 4.51128e-11 5.28546e-11
  Iterations, force evaluations = 709 1466

write_dump all custom pysimm.dump.tmp id q x y z vx vy vz
quit

################################################################################
##################################    Init    ##################################
################################################################################
units           real
atom_style      full
pair_style      lj/cut/coul/long 12.0  12.0
kspace_style    pppm 1e-4
bond_style      harmonic
angle_style     harmonic
dihedral_style  fourier
improper_style  cvff
special_bonds   amber
pair_modify     mix arithmetic
read_data       temp.lmps
  orthogonal box = (-146.851 -146.851 -146.851) to (146.851 146.851 146.851)
  reading atoms ...
  1154 atoms
  reading velocities ...
  1154 velocities
  scanning bonds ...
  scanning angles ...
  scanning dihedrals ...
  scanning impropers ...
  reading bonds ...
  1360 bonds
  reading angles ...
  2808 angles
  reading dihedrals ...
  5304 dihedrals
  reading impropers ...
  108 impropers
################################################################################

min_style cg
minimize 1e-06 1e-06 1000000 10000000
PPPM initialization ...
  G vector (1/distance) = 0.144682
  grid = 48 48 48
  stencil order = 5
  estimated absolute RMS force accuracy = 0.00150715
  estimated relative force accuracy = 4.53873e-06
  3d grid and FFT values/proc = 148877 110592
  update every 1 steps, delay 0 steps, check yes
Step Temp E_pair E_mol TotEng Press
0    738.35057    20787.173    9396.0675    32720.858    216.93212
Loop time of 30.7229 on 1 procs for 510 steps with 1154 atoms

Minimization stats:
  Stopping criterion = energy tolerance
  Energy initial, next-to-last, final =
  Force two-norm initial, final = 376175 13.374
  Force max component initial, final = 190138 1.51716
  Final line search alpha, max atom move = 0.00631026 0.00957368
  Iterations, force evaluations = 510 1016

write_dump all custom pysimm.dump.tmp id q x y z vx vy vz
quit

################################################################################
##################################    Init    ##################################
################################################################################
units           real
atom_style      full
pair_style      lj/cut/coul/long 12.0  12.0
kspace_style    pppm 1e-4
bond_style      harmonic
angle_style     harmonic
dihedral_style  fourier
improper_style  cvff
special_bonds   amber
pair_modify     mix arithmetic
read_data       temp.lmps
  orthogonal box = (-149.675 -149.675 -149.675) to (149.675 149.675 149.675)
  reading atoms ...
  1219 atoms
  reading velocities ...
  1219 velocities
  scanning bonds ...
  scanning angles ...
  scanning dihedrals ...
  scanning impropers ...
  reading bonds ...
  1436 bonds
  reading angles ...
  2964 angles
  reading dihedrals ...
  5596 dihedrals
  reading impropers ...
  114 impropers
################################################################################

min_style cg
minimize 1e-06 1e-06 1000000 10000000
PPPM initialization ...
  G vector (1/distance) = 0.143171
  grid = 48 48 48
  stencil order = 5
  estimated absolute RMS force accuracy = 0.00160306
  estimated relative force accuracy = 4.82756e-06
  3d grid and FFT values/proc = 148877 110592
  update every 1 steps, delay 0 steps, check yes
Step Temp E_pair E_mol TotEng Press
0    684.27113     1173.726    9814.3719    13472.431    2.6178699
Loop time of 40.3395 on 1 procs for 647 steps with 1219 atoms

Minimization stats:
  Stopping criterion = linesearch alpha is zero
  Energy initial, next-to-last, final =
  Force two-norm initial, final = 5870.05 11.4534
  Force max component initial, final = 3132.77 1.05716
  Final line search alpha, max atom move = 7.03587e-11 7.43805e-11
  Iterations, force evaluations = 647 1343

write_dump all custom pysimm.dump.tmp id q x y z vx vy vz
quit

################################################################################
##################################    Init    ##################################
################################################################################
units           real
atom_style      full
pair_style      lj/cut/coul/long 12.0  12.0
kspace_style    pppm 1e-4
bond_style      harmonic
angle_style     harmonic
dihedral_style  fourier
improper_style  cvff
special_bonds   amber
pair_modify     mix arithmetic
read_data       temp.lmps
  orthogonal box = (-152.397 -152.397 -152.397) to (152.397 152.397 152.397)
  reading atoms ...
  1284 atoms
  reading velocities ...
  1284 velocities
  scanning bonds ...
  scanning angles ...
  scanning dihedrals ...
  scanning impropers ...
  reading bonds ...
  1512 bonds
  reading angles ...
  3120 angles
  reading dihedrals ...
  5888 dihedrals
  reading impropers ...
  120 impropers
################################################################################

min_style cg
minimize 1e-06 1e-06 1000000 10000000
PPPM initialization ...
  G vector (1/distance) = 0.141758
  grid = 48 48 48
  stencil order = 5
  estimated absolute RMS force accuracy = 0.00169865
  estimated relative force accuracy = 5.11543e-06
  3d grid and FFT values/proc = 148877 110592
  update every 1 steps, delay 0 steps, check yes
Step Temp E_pair E_mol TotEng Press
0    616.63557    787.51748    10315.485     13461.25    -2.495835
Loop time of 33.7635 on 1 procs for 535 steps with 1284 atoms

Minimization stats:
  Stopping criterion = linesearch alpha is zero
  Energy initial, next-to-last, final =
  Force two-norm initial, final = 2733.84 13.4426
  Force max component initial, final = 890.387 1.33575
  Final line search alpha, max atom move = 5.06562e-11 6.76641e-11
  Iterations, force evaluations = 535 1119

write_dump all custom pysimm.dump.tmp id q x y z vx vy vz
quit

################################################################################
##################################    Init    ##################################
################################################################################
units           real
atom_style      full
pair_style      lj/cut/coul/long 12.0  12.0
kspace_style    pppm 1e-4
bond_style      harmonic
angle_style     harmonic
dihedral_style  fourier
improper_style  cvff
special_bonds   amber
pair_modify     mix arithmetic
read_data       temp.lmps
  orthogonal box = (-155.025 -155.025 -155.025) to (155.025 155.025 155.025)
  reading atoms ...
  1349 atoms
  reading velocities ...
  1349 velocities
  scanning bonds ...
  scanning angles ...
  scanning dihedrals ...
  scanning impropers ...
  reading bonds ...
  1588 bonds
  reading angles ...
  3276 angles
  reading dihedrals ...
  6180 dihedrals
  reading impropers ...
  126 impropers
################################################################################

min_style cg
minimize 1e-06 1e-06 1000000 10000000
PPPM initialization ...
  G vector (1/distance) = 0.143622
  grid = 50 50 50
  stencil order = 5
  estimated absolute RMS force accuracy = 0.00156781
  estimated relative force accuracy = 4.72141e-06
  3d grid and FFT values/proc = 166375 125000
  update every 1 steps, delay 0 steps, check yes
Step Temp E_pair E_mol TotEng Press
0    601.14922    675.34058    10864.297    13955.135   -4.3224173
Loop time of 38.1355 on 1 procs for 517 steps with 1349 atoms

Minimization stats:
  Stopping criterion = linesearch alpha is zero
  Energy initial, next-to-last, final =
  Force two-norm initial, final = 2380.87 12.1444
  Force max component initial, final = 611.23 1.43959
  Final line search alpha, max atom move = 6.83085e-11 9.8336e-11
  Iterations, force evaluations = 517 1084

write_dump all custom pysimm.dump.tmp id q x y z vx vy vz
quit

################################################################################
##################################    Init    ##################################
################################################################################
units           real
atom_style      full
pair_style      lj/cut/coul/long 12.0  12.0
kspace_style    pppm 1e-4
bond_style      harmonic
angle_style     harmonic
dihedral_style  fourier
improper_style  cvff
special_bonds   amber
pair_modify     mix arithmetic
read_data       temp.lmps
  orthogonal box = (-157.567 -157.567 -157.567) to (157.567 157.567 157.567)
  reading atoms ...
  1414 atoms
  reading velocities ...
  1414 velocities
  scanning bonds ...
  scanning angles ...
  scanning dihedrals ...
  scanning impropers ...
  reading bonds ...
  1664 bonds
  reading angles ...
  3432 angles
  reading dihedrals ...
  6472 dihedrals
  reading impropers ...
  132 impropers
################################################################################

min_style cg
minimize 1e-06 1e-06 1000000 10000000
PPPM initialization ...
  G vector (1/distance) = 0.142341
  grid = 50 50 50
  stencil order = 5
  estimated absolute RMS force accuracy = 0.00165244
  estimated relative force accuracy = 4.97626e-06
  3d grid and FFT values/proc = 166375 125000
  update every 1 steps, delay 0 steps, check yes
Step Temp E_pair E_mol TotEng Press
0    536.19036    757.15501    11474.025    14489.552   -5.0772114
Loop time of 44.2055 on 1 procs for 598 steps with 1414 atoms

Minimization stats:
  Stopping criterion = linesearch alpha is zero
  Energy initial, next-to-last, final =
  Force two-norm initial, final = 2865.66 11.9183
  Force max component initial, final = 1128.04 0.927139
  Final line search alpha, max atom move = 5.78106e-11 5.35985e-11
  Iterations, force evaluations = 598 1245

write_dump all custom pysimm.dump.tmp id q x y z vx vy vz
quit

################################################################################
##################################    Init    ##################################
################################################################################
units           real
atom_style      full
pair_style      lj/cut/coul/long 12.0  12.0
kspace_style    pppm 1e-4
bond_style      harmonic
angle_style     harmonic
dihedral_style  fourier
improper_style  cvff
special_bonds   amber
pair_modify     mix arithmetic
read_data       temp.lmps
  orthogonal box = (-160.03 -160.03 -160.03) to (160.03 160.03 160.03)
  reading atoms ...
  1479 atoms
  reading velocities ...
  1479 velocities
  scanning bonds ...
  scanning angles ...
  scanning dihedrals ...
  scanning impropers ...
  reading bonds ...
  1740 bonds
  reading angles ...
  3588 angles
  reading dihedrals ...
  6764 dihedrals
  reading impropers ...
  138 impropers
################################################################################

min_style cg
minimize 1e-06 1e-06 1000000 10000000
PPPM initialization ...
  G vector (1/distance) = 0.141044
  grid = 50 50 50
  stencil order = 5
  estimated absolute RMS force accuracy = 0.00173522
  estimated relative force accuracy = 5.22556e-06
  3d grid and FFT values/proc = 166375 125000
  update every 1 steps, delay 0 steps, check yes
Step Temp E_pair E_mol TotEng Press
0      515.514    1189.0265    12109.547    15569.742   -1.6007908
Loop time of 52.7742 on 1 procs for 736 steps with 1479 atoms

Minimization stats:
  Stopping criterion = linesearch alpha is zero
  Energy initial, next-to-last, final =
  Force two-norm initial, final = 7556.44 13.1869
  Force max component initial, final = 3974.39 1.21988
  Final line search alpha, max atom move = 4.4087e-11 5.37809e-11
  Iterations, force evaluations = 736 1521

write_dump all custom pysimm.dump.tmp id q x y z vx vy vz
quit

################################################################################
##################################    Init    ##################################
################################################################################
units           real
atom_style      full
pair_style      lj/cut/coul/long 12.0  12.0
kspace_style    pppm 1e-4
bond_style      harmonic
angle_style     harmonic
dihedral_style  fourier
improper_style  cvff
special_bonds   amber
pair_modify     mix arithmetic
read_data       temp.lmps
  orthogonal box = (-162.418 -162.418 -162.418) to (162.418 162.418 162.418)
  reading atoms ...
  1544 atoms
  reading velocities ...
  1544 velocities
  scanning bonds ...
  scanning angles ...
  scanning dihedrals ...
  scanning impropers ...
  reading bonds ...
  1816 bonds
  reading angles ...
  3744 angles
  reading dihedrals ...
  7056 dihedrals
  reading impropers ...
  144 impropers
################################################################################

min_style cg
minimize 1e-06 1e-06 1000000 10000000
PPPM initialization ...
  G vector (1/distance) = 0.146041
  grid = 54 54 54
  stencil order = 5
  estimated absolute RMS force accuracy = 0.00141033
  estimated relative force accuracy = 4.24715e-06
  3d grid and FFT values/proc = 205379 157464
  update every 1 steps, delay 0 steps, check yes
Step Temp E_pair E_mol TotEng Press
0    623.59623    953.95101    12545.532    16367.645    -3.680219
Loop time of 80.6154 on 1 procs for 816 steps with 1544 atoms

Minimization stats:
  Stopping criterion = energy tolerance
  Energy initial, next-to-last, final =
  Force two-norm initial, final = 3005.06 12.0228
  Force max component initial, final = 938.036 1.26409
  Final line search alpha, max atom move = 0.00817558 0.0103347
  Iterations, force evaluations = 816 1628

write_dump all custom pysimm.dump.tmp id q x y z vx vy vz
quit

################################################################################
##################################    Init    ##################################
################################################################################
units           real
atom_style      full
pair_style      lj/cut/coul/long 12.0  12.0
kspace_style    pppm 1e-4
bond_style      harmonic
angle_style     harmonic
dihedral_style  fourier
improper_style  cvff
special_bonds   amber
pair_modify     mix arithmetic
read_data       temp.lmps
  orthogonal box = (-164.739 -164.739 -164.739) to (164.739 164.739 164.739)
  reading atoms ...
  1609 atoms
  reading velocities ...
  1609 velocities
  scanning bonds ...
  scanning angles ...
  scanning dihedrals ...
  scanning impropers ...
  reading bonds ...
  1892 bonds
  reading angles ...
  3900 angles
  reading dihedrals ...
  7348 dihedrals
  reading impropers ...
  150 impropers
################################################################################

min_style cg
minimize 1e-06 1e-06 1000000 10000000
PPPM initialization ...
  G vector (1/distance) = 0.144908
  grid = 54 54 54
  stencil order = 5
  estimated absolute RMS force accuracy = 0.00147785
  estimated relative force accuracy = 4.45051e-06
  3d grid and FFT values/proc = 205379 157464
  update every 1 steps, delay 0 steps, check yes
Step Temp E_pair E_mol TotEng Press
0    585.23327     2192.842    12949.514    17947.463    5.8494711
Loop time of 76.8163 on 1 procs for 742 steps with 1609 atoms

Minimization stats:
  Stopping criterion = linesearch alpha is zero
  Energy initial, next-to-last, final =
  Force two-norm initial, final = 14172.4 11.784
  Force max component initial, final = 7822.11 1.28176
  Final line search alpha, max atom move = 5.08211e-11 6.51406e-11
  Iterations, force evaluations = 742 1533

write_dump all custom pysimm.dump.tmp id q x y z vx vy vz
quit

################################################################################
##################################    Init    ##################################
################################################################################
units           real
atom_style      full
pair_style      lj/cut/coul/long 12.0  12.0
kspace_style    pppm 1e-4
bond_style      harmonic
angle_style     harmonic
dihedral_style  fourier
improper_style  cvff
special_bonds   amber
pair_modify     mix arithmetic
read_data       temp.lmps
  orthogonal box = (-166.996 -166.996 -166.996) to (166.996 166.996 166.996)
  reading atoms ...
  1674 atoms
  reading velocities ...
  1674 velocities
  scanning bonds ...
  scanning angles ...
  scanning dihedrals ...
  scanning impropers ...
  reading bonds ...
  1968 bonds
  reading angles ...
  4056 angles
  reading dihedrals ...
  7640 dihedrals
  reading impropers ...
  156 impropers
################################################################################

min_style cg
minimize 1e-06 1e-06 1000000 10000000
PPPM initialization ...
  G vector (1/distance) = 0.143826
  grid = 54 54 54
  stencil order = 5
  estimated absolute RMS force accuracy = 0.0015452
  estimated relative force accuracy = 4.65333e-06
  3d grid and FFT values/proc = 205379 157464
  update every 1 steps, delay 0 steps, check yes
Step Temp E_pair E_mol TotEng Press
0    596.13079    18036.769    13454.601    34464.212    121.48806
Loop time of 56.4109 on 1 procs for 566 steps with 1674 atoms

Minimization stats:
  Stopping criterion = energy tolerance
  Energy initial, next-to-last, final =
  Force two-norm initial, final = 307418 12.2373
  Force max component initial, final = 202368 1.08361
  Final line search alpha, max atom move = 0.00808826 0.00876448
  Iterations, force evaluations = 566 1127

write_dump all custom pysimm.dump.tmp id q x y z vx vy vz
quit

################################################################################
##################################    Init    ##################################
################################################################################
units           real
atom_style      full
pair_style      lj/cut/coul/long 12.0  12.0
kspace_style    pppm 1e-4
bond_style      harmonic
angle_style     harmonic
dihedral_style  fourier
improper_style  cvff
special_bonds   amber
pair_modify     mix arithmetic
read_data       temp.lmps
  orthogonal box = (-169.193 -169.193 -169.193) to (169.193 169.193 169.193)
  reading atoms ...
  1739 atoms
  reading velocities ...
  1739 velocities
  scanning bonds ...
  scanning angles ...
  scanning dihedrals ...
  scanning impropers ...
  reading bonds ...
  2044 bonds
  reading angles ...
  4212 angles
  reading dihedrals ...
  7932 dihedrals
  reading impropers ...
  162 impropers
################################################################################

min_style cg
minimize 1e-06 1e-06 1000000 10000000
PPPM initialization ...
  G vector (1/distance) = 0.142794
  grid = 54 54 54
  stencil order = 5
  estimated absolute RMS force accuracy = 0.00161238
  estimated relative force accuracy = 4.85564e-06
  3d grid and FFT values/proc = 205379 157464
  update every 1 steps, delay 0 steps, check yes
Step Temp E_pair E_mol TotEng Press
0    530.61029    2211.5334    13923.185    18883.624    4.2533379
Loop time of 49.7028 on 1 procs for 467 steps with 1739 atoms

Minimization stats:
  Stopping criterion = linesearch alpha is zero
  Energy initial, next-to-last, final =
  Force two-norm initial, final = 15873 12.0165
  Force max component initial, final = 7458.91 0.983938
  Final line search alpha, max atom move = 5.46016e-11 5.37246e-11
  Iterations, force evaluations = 467 984

write_dump all custom pysimm.dump.tmp id q x y z vx vy vz
quit

################################################################################
##################################    Init    ##################################
################################################################################
units           real
atom_style      full
pair_style      lj/cut/coul/long 12.0  12.0
kspace_style    pppm 1e-4
bond_style      harmonic
angle_style     harmonic
dihedral_style  fourier
improper_style  cvff
special_bonds   amber
pair_modify     mix arithmetic
read_data       temp.lmps
  orthogonal box = (-171.335 -171.335 -171.335) to (171.335 171.335 171.335)
  reading atoms ...
  1804 atoms
  reading velocities ...
  1804 velocities
  scanning bonds ...
  scanning angles ...
  scanning dihedrals ...
  scanning impropers ...
  reading bonds ...
  2120 bonds
  reading angles ...
  4368 angles
  reading dihedrals ...
  8224 dihedrals
  reading impropers ...
  168 impropers
################################################################################

min_style cg
minimize 1e-06 1e-06 1000000 10000000
PPPM initialization ...
  G vector (1/distance) = 0.141808
  grid = 54 54 54
  stencil order = 5
  estimated absolute RMS force accuracy = 0.00167942
  estimated relative force accuracy = 5.05753e-06
  3d grid and FFT values/proc = 205379 157464
  update every 1 steps, delay 0 steps, check yes
Step Temp E_pair E_mol TotEng Press
0    605.98355    995.26414    14569.566    18821.629   -4.7232276
Loop time of 50.1678 on 1 procs for 498 steps with 1804 atoms

Minimization stats:
  Stopping criterion = energy tolerance
  Energy initial, next-to-last, final =
  Force two-norm initial, final = 3115.44 13.4155
  Force max component initial, final = 888.166 1.20413
  Final line search alpha, max atom move = 0.00678821 0.00817387
  Iterations, force evaluations = 498 993

write_dump all custom pysimm.dump.tmp id q x y z vx vy vz
quit

################################################################################
##################################    Init    ##################################
################################################################################
units           real
atom_style      full
pair_style      lj/cut/coul/long 12.0  12.0
kspace_style    pppm 1e-4
bond_style      harmonic
angle_style     harmonic
dihedral_style  fourier
improper_style  cvff
special_bonds   amber
pair_modify     mix arithmetic
read_data       temp.lmps
  orthogonal box = (-173.425 -173.425 -173.425) to (173.425 173.425 173.425)
  reading atoms ...
  1869 atoms
  reading velocities ...
  1869 velocities
  scanning bonds ...
  scanning angles ...
  scanning dihedrals ...
  scanning impropers ...
  reading bonds ...
  2196 bonds
  reading angles ...
  4524 angles
  reading dihedrals ...
  8516 dihedrals
  reading impropers ...
  174 impropers
################################################################################

min_style cg
minimize 1e-06 1e-06 1000000 10000000
PPPM initialization ...
  G vector (1/distance) = 0.14077
  grid = 54 54 54
  stencil order = 5
  estimated absolute RMS force accuracy = 0.00174451
  estimated relative force accuracy = 5.25353e-06
  3d grid and FFT values/proc = 205379 157464
  update every 1 steps, delay 0 steps, check yes
Step Temp E_pair E_mol TotEng Press
0    567.73775    2026.6709    15201.763    20389.685    1.3662103
Loop time of 71.4789 on 1 procs for 686 steps with 1869 atoms

Minimization stats:
  Stopping criterion = linesearch alpha is zero
  Energy initial, next-to-last, final =
  Force two-norm initial, final = 13140.3 14.7611
  Force max component initial, final = 8673.28 1.6116
  Final line search alpha, max atom move = 5.0237e-11 8.0962e-11
  Iterations, force evaluations = 686 1421

write_dump all custom pysimm.dump.tmp id q x y z vx vy vz
quit

################################################################################
##################################    Init    ##################################
################################################################################
units           real
atom_style      full
pair_style      lj/cut/coul/long 12.0  12.0
kspace_style    pppm 1e-4
bond_style      harmonic
angle_style     harmonic
dihedral_style  fourier
improper_style  cvff
special_bonds   amber
pair_modify     mix arithmetic
read_data       temp.lmps
  orthogonal box = (-175.466 -175.466 -175.466) to (175.466 175.466 175.466)
  reading atoms ...
  1934 atoms
  reading velocities ...
  1934 velocities
  scanning bonds ...
  scanning angles ...
  scanning dihedrals ...
  scanning impropers ...
  reading bonds ...
  2272 bonds
  reading angles ...
  4680 angles
  reading dihedrals ...
  8808 dihedrals
  reading impropers ...
  180 impropers
################################################################################

min_style cg
minimize 1e-06 1e-06 1000000 10000000
PPPM initialization ...
  G vector (1/distance) = 0.148295
  grid = 60 60 60
  stencil order = 5
  estimated absolute RMS force accuracy = 0.00127455
  estimated relative force accuracy = 3.83826e-06
  3d grid and FFT values/proc = 274625 216000
  update every 1 steps, delay 0 steps, check yes
Step Temp E_pair E_mol TotEng Press
0    538.45569    1396.3085    15592.158    20090.998   -2.8872729
Loop time of 55.5474 on 1 procs for 413 steps with 1934 atoms

Minimization stats:
  Stopping criterion = energy tolerance
  Energy initial, next-to-last, final =
  Force two-norm initial, final = 5253.22 12.2119
  Force max component initial, final = 2408.09 1.14617
  Final line search alpha, max atom move = 0.00811226 0.00929803
  Iterations, force evaluations = 413 822

write_dump all custom pysimm.dump.tmp id q x y z vx vy vz
quit

################################################################################
##################################    Init    ##################################
################################################################################
units           real
atom_style      full
pair_style      lj/cut/coul/long 12.0  12.0
kspace_style    pppm 1e-4
bond_style      harmonic
angle_style     harmonic
dihedral_style  fourier
improper_style  cvff
special_bonds   amber
pair_modify     mix arithmetic
read_data       temp.lmps
  orthogonal box = (-177.46 -177.46 -177.46) to (177.46 177.46 177.46)
  reading atoms ...
  1999 atoms
  reading velocities ...
  1999 velocities
  scanning bonds ...
  scanning angles ...
  scanning dihedrals ...
  scanning impropers ...
  reading bonds ...
  2348 bonds
  reading angles ...
  4836 angles
  reading dihedrals ...
  9100 dihedrals
  reading impropers ...
  186 impropers
################################################################################

min_style cg
minimize 1e-06 1e-06 1000000 10000000
PPPM initialization ...
  G vector (1/distance) = 0.147387
  grid = 60 60 60
  stencil order = 5
  estimated absolute RMS force accuracy = 0.00132398
  estimated relative force accuracy = 3.98714e-06
  3d grid and FFT values/proc = 274625 216000
  update every 1 steps, delay 0 steps, check yes
Step Temp E_pair E_mol TotEng Press
0    452.66176      1861.25    16146.009    20703.158    -1.666442
Loop time of 94.5247 on 1 procs for 714 steps with 1999 atoms

Minimization stats:
  Stopping criterion = energy tolerance
  Energy initial, next-to-last, final =
  Force two-norm initial, final = 8390.89 12.3398
  Force max component initial, final = 4931.49 1.09931
  Final line search alpha, max atom move = 0.00682608 0.007504
  Iterations, force evaluations = 714 1424

write_dump all custom pysimm.dump.tmp id q x y z vx vy vz
quit

################################################################################
##################################    Init    ##################################
################################################################################
units           real
atom_style      full
pair_style      lj/cut/coul/long 12.0  12.0
kspace_style    pppm 1e-4
bond_style      harmonic
angle_style     harmonic
dihedral_style  fourier
improper_style  cvff
special_bonds   amber
pair_modify     mix arithmetic
read_data       temp.lmps
  orthogonal box = (-179.41 -179.41 -179.41) to (179.41 179.41 179.41)
  reading atoms ...
  2064 atoms
  reading velocities ...
  2064 velocities
  scanning bonds ...
  scanning angles ...
  scanning dihedrals ...
  scanning impropers ...
  reading bonds ...
  2424 bonds
  reading angles ...
  4992 angles
  reading dihedrals ...
  9392 dihedrals
  reading impropers ...
  192 impropers
################################################################################

min_style cg
minimize 1e-06 1e-06 1000000 10000000
PPPM initialization ...
  G vector (1/distance) = 0.14651
  grid = 60 60 60
  stencil order = 5
  estimated absolute RMS force accuracy = 0.00137333
  estimated relative force accuracy = 4.13575e-06
  3d grid and FFT values/proc = 274625 216000
  update every 1 steps, delay 0 steps, check yes
Step Temp E_pair E_mol TotEng Press
0    478.95195    9983.9813    16570.989    29500.242    46.651449
Loop time of 62.6277 on 1 procs for 462 steps with 2064 atoms

Minimization stats:
  Stopping criterion = energy tolerance
  Energy initial, next-to-last, final =
  Force two-norm initial, final = 149544 13.6735
  Force max component initial, final = 77937.5 1.11782
  Final line search alpha, max atom move = 0.00775136 0.00866462
  Iterations, force evaluations = 462 920

write_dump all custom pysimm.dump.tmp id q x y z vx vy vz
quit

################################################################################
##################################    Init    ##################################
################################################################################
units           real
atom_style      full
pair_style      lj/cut/coul/long 12.0  12.0
kspace_style    pppm 1e-4
bond_style      harmonic
angle_style     harmonic
dihedral_style  fourier
improper_style  cvff
special_bonds   amber
pair_modify     mix arithmetic
read_data       temp.lmps
  orthogonal box = (-181.319 -181.319 -181.319) to (181.319 181.319 181.319)
  reading atoms ...
  2129 atoms
  reading velocities ...
  2129 velocities
  scanning bonds ...
  scanning angles ...
  scanning dihedrals ...
  scanning impropers ...
  reading bonds ...
  2500 bonds
  reading angles ...
  5148 angles
  reading dihedrals ...
  9684 dihedrals
  reading impropers ...
  198 impropers
################################################################################

min_style cg
minimize 1e-06 1e-06 1000000 10000000
PPPM initialization ...
  G vector (1/distance) = 0.145663
  grid = 60 60 60
  stencil order = 5
  estimated absolute RMS force accuracy = 0.00142259
  estimated relative force accuracy = 4.28407e-06
  3d grid and FFT values/proc = 274625 216000
  update every 1 steps, delay 0 steps, check yes
Step Temp E_pair E_mol TotEng Press
0     383.2274    5736.4779    17198.945    25366.297    19.734776
Loop time of 57.8616 on 1 procs for 416 steps with 2129 atoms

Minimization stats:
  Stopping criterion = energy tolerance
  Energy initial, next-to-last, final =
  Force two-norm initial, final = 54509.8 13.0072
  Force max component initial, final = 28500.5 1.11143
  Final line search alpha, max atom move = 0.000140187 0.000155808
  Iterations, force evaluations = 416 839

write_dump all custom pysimm.dump.tmp id q x y z vx vy vz
quit

################################################################################
##################################    Init    ##################################
################################################################################
units           real
atom_style      full
pair_style      lj/cut/coul/long 12.0  12.0
kspace_style    pppm 1e-4
bond_style      harmonic
angle_style     harmonic
dihedral_style  fourier
improper_style  cvff
special_bonds   amber
pair_modify     mix arithmetic
read_data       temp.lmps
  orthogonal box = (-183.188 -183.188 -183.188) to (183.188 183.188 183.188)
  reading atoms ...
  2194 atoms
  reading velocities ...
  2194 velocities
  scanning bonds ...
  scanning angles ...
  scanning dihedrals ...
  scanning impropers ...
  reading bonds ...
  2576 bonds
  reading angles ...
  5304 angles
  reading dihedrals ...
  9976 dihedrals
  reading impropers ...
  204 impropers
################################################################################

min_style cg
minimize 1e-06 1e-06 1000000 10000000
PPPM initialization ...
  G vector (1/distance) = 0.144845
  grid = 60 60 60
  stencil order = 5
  estimated absolute RMS force accuracy = 0.00147174
  estimated relative force accuracy = 4.43211e-06
  3d grid and FFT values/proc = 274625 216000
  update every 1 steps, delay 0 steps, check yes
Step Temp E_pair E_mol TotEng Press
0    420.28251    1598.0265    17678.658    22024.036   -4.0050178
Loop time of 78.8509 on 1 procs for 555 steps with 2194 atoms

Minimization stats:
  Stopping criterion = linesearch alpha is zero
  Energy initial, next-to-last, final =
  Force two-norm initial, final = 7386.73 12.5659
  Force max component initial, final = 3326.05 1.40613
  Final line search alpha, max atom move = 4.98873e-11 7.01483e-11
  Iterations, force evaluations = 555 1159

write_dump all custom pysimm.dump.tmp id q x y z vx vy vz
quit

################################################################################
##################################    Init    ##################################
################################################################################
units           real
atom_style      full
pair_style      lj/cut/coul/long 12.0  12.0
kspace_style    pppm 1e-4
bond_style      harmonic
angle_style     harmonic
dihedral_style  fourier
improper_style  cvff
special_bonds   amber
pair_modify     mix arithmetic
read_data       temp.lmps
  orthogonal box = (-185.02 -185.02 -185.02) to (185.02 185.02 185.02)
  reading atoms ...
  2259 atoms
  reading velocities ...
  2259 velocities
  scanning bonds ...
  scanning angles ...
  scanning dihedrals ...
  scanning impropers ...
  reading bonds ...
  2652 bonds
  reading angles ...
  5460 angles
  reading dihedrals ...
  10268 dihedrals
  reading impropers ...
  210 impropers
################################################################################

min_style cg
minimize 1e-06 1e-06 1000000 10000000
PPPM initialization ...
  G vector (1/distance) = 0.144054
  grid = 60 60 60
  stencil order = 5
  estimated absolute RMS force accuracy = 0.00152081
  estimated relative force accuracy = 4.57987e-06
  3d grid and FFT values/proc = 274625 216000
  update every 1 steps, delay 0 steps, check yes
Step Temp E_pair E_mol TotEng Press
0    383.60515    3186.1962    18262.211    24030.326    3.8607314
Loop time of 93.0406 on 1 procs for 677 steps with 2259 atoms

Minimization stats:
  Stopping criterion = energy tolerance
  Energy initial, next-to-last, final =
  Force two-norm initial, final = 15045.4 14.1597
  Force max component initial, final = 7117.37 1.16188
  Final line search alpha, max atom move = 0.00744871 0.00865448
  Iterations, force evaluations = 677 1349

write_dump all custom pysimm.dump.tmp id q x y z vx vy vz
quit

################################################################################
##################################    Init    ##################################
################################################################################
units           real
atom_style      full
pair_style      lj/cut/coul/long 12.0  12.0
kspace_style    pppm 1e-4
bond_style      harmonic
angle_style     harmonic
dihedral_style  fourier
improper_style  cvff
special_bonds   amber
pair_modify     mix arithmetic
read_data       temp.lmps
  orthogonal box = (-186.816 -186.816 -186.816) to (186.816 186.816 186.816)
  reading atoms ...
  2324 atoms
  reading velocities ...
  2324 velocities
  scanning bonds ...
  scanning angles ...
  scanning dihedrals ...
  scanning impropers ...
  reading bonds ...
  2728 bonds
  reading angles ...
  5616 angles
  reading dihedrals ...
  10560 dihedrals
  reading impropers ...
  216 impropers
################################################################################

min_style cg
minimize 1e-06 1e-06 1000000 10000000
PPPM initialization ...
  G vector (1/distance) = 0.143289
  grid = 60 60 60
  stencil order = 5
  estimated absolute RMS force accuracy = 0.00156979
  estimated relative force accuracy = 4.72737e-06
  3d grid and FFT values/proc = 274625 216000
  update every 1 steps, delay 0 steps, check yes
Step Temp E_pair E_mol TotEng Press
0    364.27324    5124.5701    18664.942    26311.893    13.269891
Loop time of 72.6853 on 1 procs for 489 steps with 2324 atoms

Minimization stats:
  Stopping criterion = energy tolerance
  Energy initial, next-to-last, final =
  Force two-norm initial, final = 39335.1 13.9791
  Force max component initial, final = 18603.5 1.46154
  Final line search alpha, max atom move = 2.23112e-10 3.26087e-10
  Iterations, force evaluations = 489 1024

write_dump all custom pysimm.dump.tmp id q x y z vx vy vz
quit

################################################################################
##################################    Init    ##################################
################################################################################
units           real
atom_style      full
pair_style      lj/cut/coul/long 12.0  12.0
kspace_style    pppm 1e-4
bond_style      harmonic
angle_style     harmonic
dihedral_style  fourier
improper_style  cvff
special_bonds   amber
pair_modify     mix arithmetic
read_data       temp.lmps
  orthogonal box = (-188.579 -188.579 -188.579) to (188.579 188.579 188.579)
  reading atoms ...
  2389 atoms
  reading velocities ...
  2389 velocities
  scanning bonds ...
  scanning angles ...
  scanning dihedrals ...
  scanning impropers ...
  reading bonds ...
  2804 bonds
  reading angles ...
  5772 angles
  reading dihedrals ...
  10852 dihedrals
  reading impropers ...
  222 impropers
################################################################################

min_style cg
minimize 1e-06 1e-06 1000000 10000000
PPPM initialization ...
  G vector (1/distance) = 0.142549
  grid = 60 60 60
  stencil order = 5
  estimated absolute RMS force accuracy = 0.00161869
  estimated relative force accuracy = 4.87462e-06
  3d grid and FFT values/proc = 274625 216000
  update every 1 steps, delay 0 steps, check yes
Step Temp E_pair E_mol TotEng Press
0    326.90714     2036.109    19108.256    23471.347   -3.5250826
Loop time of 65.7126 on 1 procs for 456 steps with 2389 atoms

Minimization stats:
  Stopping criterion = energy tolerance
  Energy initial, next-to-last, final =
  Force two-norm initial, final = 6686.9 15.3703
  Force max component initial, final = 1971.24 1.573
  Final line search alpha, max atom move = 0.00551094 0.00866869
  Iterations, force evaluations = 456 906

write_dump all custom pysimm.dump.tmp id q x y z vx vy vz
quit

################################################################################
##################################    Init    ##################################
################################################################################
units           real
atom_style      full
pair_style      lj/cut/coul/long 12.0  12.0
kspace_style    pppm 1e-4
bond_style      harmonic
angle_style     harmonic
dihedral_style  fourier
improper_style  cvff
special_bonds   amber
pair_modify     mix arithmetic
read_data       temp.lmps
  orthogonal box = (-190.309 -190.309 -190.309) to (190.309 190.309 190.309)
  reading atoms ...
  2454 atoms
  reading velocities ...
  2454 velocities
  scanning bonds ...
  scanning angles ...
  scanning dihedrals ...
  scanning impropers ...
  reading bonds ...
  2880 bonds
  reading angles ...
  5928 angles
  reading dihedrals ...
  11144 dihedrals
  reading impropers ...
  228 impropers
################################################################################

min_style cg
minimize 1e-06 1e-06 1000000 10000000
PPPM initialization ...
  G vector (1/distance) = 0.141834
  grid = 60 60 60
  stencil order = 5
  estimated absolute RMS force accuracy = 0.00166751
  estimated relative force accuracy = 5.02167e-06
  3d grid and FFT values/proc = 274625 216000
  update every 1 steps, delay 0 steps, check yes
Step Temp E_pair E_mol TotEng Press
0    316.56723    15463.499     19749.57    37527.785    62.995857
Loop time of 152.022 on 1 procs for 1003 steps with 2454 atoms

Minimization stats:
  Stopping criterion = linesearch alpha is zero
  Energy initial, next-to-last, final =
  Force two-norm initial, final = 247237 12.7148
  Force max component initial, final = 171213 1.42368
  Final line search alpha, max atom move = 3.94339e-11 5.61411e-11
  Iterations, force evaluations = 1003 2054

write_dump all custom pysimm.dump.tmp id q x y z vx vy vz
quit

################################################################################
##################################    Init    ##################################
################################################################################
units           real
atom_style      full
pair_style      lj/cut/coul/long 12.0  12.0
kspace_style    pppm 1e-4
bond_style      harmonic
angle_style     harmonic
dihedral_style  fourier
improper_style  cvff
special_bonds   amber
pair_modify     mix arithmetic
read_data       temp.lmps
  orthogonal box = (-192.008 -192.008 -192.008) to (192.008 192.008 192.008)
  reading atoms ...
  2519 atoms
  reading velocities ...
  2519 velocities
  scanning bonds ...
  scanning angles ...
  scanning dihedrals ...
  scanning impropers ...
  reading bonds ...
  2956 bonds
  reading angles ...
  6084 angles
  reading dihedrals ...
  11436 dihedrals
  reading impropers ...
  234 impropers
################################################################################

min_style cg
minimize 1e-06 1e-06 1000000 10000000
PPPM initialization ...
  G vector (1/distance) = 0.141055
  grid = 60 60 60
  stencil order = 5
  estimated absolute RMS force accuracy = 0.00171468
  estimated relative force accuracy = 5.1637e-06
  3d grid and FFT values/proc = 274625 216000
  update every 1 steps, delay 0 steps, check yes
Step Temp E_pair E_mol TotEng Press
0    306.64258    2305.8903    20088.067    24695.518   -3.0202374
Loop time of 62.8698 on 1 procs for 394 steps with 2519 atoms

Minimization stats:
  Stopping criterion = linesearch alpha is zero
  Energy initial, next-to-last, final =
  Force two-norm initial, final = 11910.2 17.6431
  Force max component initial, final = 7491.12 1.49474
  Final line search alpha, max atom move = 2.4914e-11 3.72401e-11
  Iterations, force evaluations = 394 839

write_dump all custom pysimm.dump.tmp id q x y z vx vy vz
quit

################################################################################
##################################    Init    ##################################
################################################################################
units           real
atom_style      full
pair_style      lj/cut/coul/long 12.0  12.0
kspace_style    pppm 1e-4
bond_style      harmonic
angle_style     harmonic
dihedral_style  fourier
improper_style  cvff
special_bonds   amber
pair_modify     mix arithmetic
read_data       temp.lmps
  orthogonal box = (-193.678 -193.678 -193.678) to (193.678 193.678 193.678)
  reading atoms ...
  2584 atoms
  reading velocities ...
  2584 velocities
  scanning bonds ...
  scanning angles ...
  scanning dihedrals ...
  scanning impropers ...
  reading bonds ...
  3032 bonds
  reading angles ...
  6240 angles
  reading dihedrals ...
  11728 dihedrals
  reading impropers ...
  240 impropers
################################################################################

min_style cg
minimize 1e-06 1e-06 1000000 10000000
PPPM initialization ...
  G vector (1/distance) = 0.145551
  grid = 64 64 64
  stencil order = 5
  estimated absolute RMS force accuracy = 0.00142451
  estimated relative force accuracy = 4.28987e-06
  3d grid and FFT values/proc = 328509 262144
  update every 1 steps, delay 0 steps, check yes
Step Temp E_pair E_mol TotEng Press
0    336.54455    26313.721    20831.774    49736.697    110.07127
Loop time of 161.465 on 1 procs for 669 steps with 2584 atoms

Minimization stats:
  Stopping criterion = linesearch alpha is zero
  Energy initial, next-to-last, final =
  Force two-norm initial, final = 430767 14.7501
  Force max component initial, final = 268794 1.20504
  Final line search alpha, max atom move = 4.14832e-11 4.99889e-11
  Iterations, force evaluations = 669 1386

write_dump all custom pysimm.dump.tmp id q x y z vx vy vz
quit

################################################################################
##################################    Init    ##################################
################################################################################
units           real
atom_style      full
pair_style      lj/cut/coul/long 12.0  12.0
kspace_style    pppm 1e-4
bond_style      harmonic
angle_style     harmonic
dihedral_style  fourier
improper_style  cvff
special_bonds   amber
pair_modify     mix arithmetic
read_data       temp.lmps
  orthogonal box = (-195.32 -195.32 -195.32) to (195.32 195.32 195.32)
  reading atoms ...
  2649 atoms
  reading velocities ...
  2649 velocities
  scanning bonds ...
  scanning angles ...
  scanning dihedrals ...
  scanning impropers ...
  reading bonds ...
  3108 bonds
  reading angles ...
  6396 angles
  reading dihedrals ...
  12020 dihedrals
  reading impropers ...
  246 impropers
################################################################################

min_style cg
minimize 1e-06 1e-06 1000000 10000000
PPPM initialization ...
  G vector (1/distance) = 0.144878
  grid = 64 64 64
  stencil order = 5
  estimated absolute RMS force accuracy = 0.001465
  estimated relative force accuracy = 4.4118e-06
  3d grid and FFT values/proc = 328509 262144
  update every 1 steps, delay 0 steps, check yes
Step Temp E_pair E_mol TotEng Press
0     280.3302    4082.9351     21372.48    27668.113    4.4510127
Loop time of 173.101 on 1 procs for 697 steps with 2649 atoms

Minimization stats:
  Stopping criterion = linesearch alpha is zero
  Energy initial, next-to-last, final =
  Force two-norm initial, final = 23624.6 13.5541
  Force max component initial, final = 11106.1 1.45484
  Final line search alpha, max atom move = 5.31763e-11 7.73632e-11
  Iterations, force evaluations = 697 1442

write_dump all custom pysimm.dump.tmp id q x y z vx vy vz
quit

################################################################################
##################################    Init    ##################################
################################################################################
units           real
atom_style      full
pair_style      lj/cut/coul/long 12.0  12.0
kspace_style    pppm 1e-4
bond_style      harmonic
angle_style     harmonic
dihedral_style  fourier
improper_style  cvff
special_bonds   amber
pair_modify     mix arithmetic
read_data       temp.lmps
  orthogonal box = (-196.934 -196.934 -196.934) to (196.934 196.934 196.934)
  reading atoms ...
  2714 atoms
  reading velocities ...
  2714 velocities
  scanning bonds ...
  scanning angles ...
  scanning dihedrals ...
  scanning impropers ...
  reading bonds ...
  3184 bonds
  reading angles ...
  6552 angles
  reading dihedrals ...
  12312 dihedrals
  reading impropers ...
  252 impropers
################################################################################

min_style cg
minimize 1e-06 1e-06 1000000 10000000
PPPM initialization ...
  G vector (1/distance) = 0.144223
  grid = 64 64 64
  stencil order = 5
  estimated absolute RMS force accuracy = 0.00150542
  estimated relative force accuracy = 4.53353e-06
  3d grid and FFT values/proc = 328509 262144
  update every 1 steps, delay 0 steps, check yes
Step Temp E_pair E_mol TotEng Press
0    503.86841    3145.1094    21899.074    29118.936   0.72886423
Loop time of 131.094 on 1 procs for 742 steps with 2714 atoms

Minimization stats:
  Stopping criterion = energy tolerance
  Energy initial, next-to-last, final =
  Force two-norm initial, final = 14467.7 15.7524
  Force max component initial, final = 6101.93 1.21797
  Final line search alpha, max atom move = 0.00563087 0.00685823
  Iterations, force evaluations = 742 1480

write_dump all custom pysimm.dump.tmp id q x y z vx vy vz
quit

################################################################################
##################################    Init    ##################################
################################################################################
units           real
atom_style      full
pair_style      lj/cut/coul/long 12.0  12.0
kspace_style    pppm 1e-4
bond_style      harmonic
angle_style     harmonic
dihedral_style  fourier
improper_style  cvff
special_bonds   amber
pair_modify     mix arithmetic
read_data       temp.lmps
  orthogonal box = (-198.522 -198.522 -198.522) to (198.522 198.522 198.522)
  reading atoms ...
  2779 atoms
  reading velocities ...
  2779 velocities
  scanning bonds ...
  scanning angles ...
  scanning dihedrals ...
  scanning impropers ...
  reading bonds ...
  3260 bonds
  reading angles ...
  6708 angles
  reading dihedrals ...
  12604 dihedrals
  reading impropers ...
  258 impropers
################################################################################

min_style cg
minimize 1e-06 1e-06 1000000 10000000
PPPM initialization ...
  G vector (1/distance) = 0.143586
  grid = 64 64 64
  stencil order = 5
  estimated absolute RMS force accuracy = 0.00154578
  estimated relative force accuracy = 4.65508e-06
  3d grid and FFT values/proc = 328509 262144
  update every 1 steps, delay 0 steps, check yes
Step Temp E_pair E_mol TotEng Press
0    407.21413    3717.5823    22319.167    29408.764    2.7847805
Loop time of 89.115 on 1 procs for 464 steps with 2779 atoms

Minimization stats:
  Stopping criterion = linesearch alpha is zero
  Energy initial, next-to-last, final =
  Force two-norm initial, final = 19588.7 15.5257
  Force max component initial, final = 8360.58 1.46881
  Final line search alpha, max atom move = 3.4483e-11 5.06492e-11
  Iterations, force evaluations = 464 978

write_dump all custom pysimm.dump.tmp id q x y z vx vy vz
quit

################################################################################
##################################    Init    ##################################
################################################################################
units           real
atom_style      full
pair_style      lj/cut/coul/long 12.0  12.0
kspace_style    pppm 1e-4
bond_style      harmonic
angle_style     harmonic
dihedral_style  fourier
improper_style  cvff
special_bonds   amber
pair_modify     mix arithmetic
read_data       temp.lmps
  orthogonal box = (-200.085 -200.085 -200.085) to (200.085 200.085 200.085)
  reading atoms ...
  2844 atoms
  reading velocities ...
  2844 velocities
  scanning bonds ...
  scanning angles ...
  scanning dihedrals ...
  scanning impropers ...
  reading bonds ...
  3336 bonds
  reading angles ...
  6864 angles
  reading dihedrals ...
  12896 dihedrals
  reading impropers ...
  264 impropers
################################################################################

min_style cg
minimize 1e-06 1e-06 1000000 10000000
PPPM initialization ...
  G vector (1/distance) = 0.142967
  grid = 64 64 64
  stencil order = 5
  estimated absolute RMS force accuracy = 0.00158609
  estimated relative force accuracy = 4.77647e-06
  3d grid and FFT values/proc = 328509 262144
  update every 1 steps, delay 0 steps, check yes
Step Temp E_pair E_mol TotEng Press
0    344.84217    4920.0974    22824.109    30666.552    6.9597882
Loop time of 109.324 on 1 procs for 603 steps with 2844 atoms

Minimization stats:
  Stopping criterion = energy tolerance
  Energy initial, next-to-last, final =
  Force two-norm initial, final = 42876.3 15.0954
  Force max component initial, final = 23199.9 1.15597
  Final line search alpha, max atom move = 0.00629933 0.00728181
  Iterations, force evaluations = 603 1201

write_dump all custom pysimm.dump.tmp id q x y z vx vy vz
quit

################################################################################
##################################    Init    ##################################
################################################################################
units           real
atom_style      full
pair_style      lj/cut/coul/long 12.0  12.0
kspace_style    pppm 1e-4
bond_style      harmonic
angle_style     harmonic
dihedral_style  fourier
improper_style  cvff
special_bonds   amber
pair_modify     mix arithmetic
read_data       temp.lmps
  orthogonal box = (-201.625 -201.625 -201.625) to (201.625 201.625 201.625)
  reading atoms ...
  2909 atoms
  reading velocities ...
  2909 velocities
  scanning bonds ...
  scanning angles ...
  scanning dihedrals ...
  scanning impropers ...
  reading bonds ...
  3412 bonds
  reading angles ...
  7020 angles
  reading dihedrals ...
  13188 dihedrals
  reading impropers ...
  270 impropers
################################################################################

min_style cg
minimize 1e-06 1e-06 1000000 10000000
PPPM initialization ...
  G vector (1/distance) = 0.142365
  grid = 64 64 64
  stencil order = 5
  estimated absolute RMS force accuracy = 0.00162635
  estimated relative force accuracy = 4.8977e-06
  3d grid and FFT values/proc = 328509 262144
  update every 1 steps, delay 0 steps, check yes
Step Temp E_pair E_mol TotEng Press
0    303.94676    8274.1516    23266.131    34174.953    20.277942
Loop time of 94.554 on 1 procs for 487 steps with 2909 atoms

Minimization stats:
  Stopping criterion = linesearch alpha is zero
  Energy initial, next-to-last, final =
  Force two-norm initial, final = 58632.8 15.6567
  Force max component initial, final = 31573.7 1.05265
  Final line search alpha, max atom move = 4.99129e-11 5.25407e-11
  Iterations, force evaluations = 487 1021

write_dump all custom pysimm.dump.tmp id q x y z vx vy vz
quit

################################################################################
##################################    Init    ##################################
################################################################################
units           real
atom_style      full
pair_style      lj/cut/coul/long 12.0  12.0
kspace_style    pppm 1e-4
bond_style      harmonic
angle_style     harmonic
dihedral_style  fourier
improper_style  cvff
special_bonds   amber
pair_modify     mix arithmetic
read_data       temp.lmps
  orthogonal box = (-203.141 -203.141 -203.141) to (203.141 203.141 203.141)
  reading atoms ...
  2974 atoms
  reading velocities ...
  2974 velocities
  scanning bonds ...
  scanning angles ...
  scanning dihedrals ...
  scanning impropers ...
  reading bonds ...
  3488 bonds
  reading angles ...
  7176 angles
  reading dihedrals ...
  13480 dihedrals
  reading impropers ...
  276 impropers
################################################################################

min_style cg
minimize 1e-06 1e-06 1000000 10000000
PPPM initialization ...
  G vector (1/distance) = 0.141779
  grid = 64 64 64
  stencil order = 5
  estimated absolute RMS force accuracy = 0.00166656
  estimated relative force accuracy = 5.0188e-06
  3d grid and FFT values/proc = 328509 262144
  update every 1 steps, delay 0 steps, check yes
Step Temp E_pair E_mol TotEng Press
0    282.62477    5581.7509    24024.627    32110.984    7.9784953
Loop time of 166.702 on 1 procs for 865 steps with 2974 atoms

Minimization stats:
  Stopping criterion = linesearch alpha is zero
  Energy initial, next-to-last, final =
  Force two-norm initial, final = 30326 16.1418
  Force max component initial, final = 11544.7 1.74165
  Final line search alpha, max atom move = 2.40948e-11 4.19646e-11
  Iterations, force evaluations = 865 1777

write_dump all custom pysimm.dump.tmp id q x y z vx vy vz
quit

################################################################################
##################################    Init    ##################################
################################################################################
units           real
atom_style      full
pair_style      lj/cut/coul/long 12.0  12.0
kspace_style    pppm 1e-4
bond_style      harmonic
angle_style     harmonic
dihedral_style  fourier
improper_style  cvff
special_bonds   amber
pair_modify     mix arithmetic
read_data       temp.lmps
  orthogonal box = (-204.634 -204.634 -204.634) to (204.634 204.634 204.634)
  reading atoms ...
  3039 atoms
  reading velocities ...
  3039 velocities
  scanning bonds ...
  scanning angles ...
  scanning dihedrals ...
  scanning impropers ...
  reading bonds ...
  3564 bonds
  reading angles ...
  7332 angles
  reading dihedrals ...
  13772 dihedrals
  reading impropers ...
  282 impropers
################################################################################

min_style cg
minimize 1e-06 1e-06 1000000 10000000
PPPM initialization ...
  G vector (1/distance) = 0.141124
  grid = 64 64 64
  stencil order = 5
  estimated absolute RMS force accuracy = 0.00170518
  estimated relative force accuracy = 5.1351e-06
  3d grid and FFT values/proc = 328509 262144
  update every 1 steps, delay 0 steps, check yes
Step Temp E_pair E_mol TotEng Press
0    251.42287    2738.3564    24373.934    29389.101   -3.8202904
Loop time of 100.605 on 1 procs for 549 steps with 3039 atoms

Minimization stats:
  Stopping criterion = energy tolerance
  Energy initial, next-to-last, final =
  Force two-norm initial, final = 10839 15.351
  Force max component initial, final = 5935.17 1.06994
  Final line search alpha, max atom move = 0.00456022 0.00487915
  Iterations, force evaluations = 549 1093

write_dump all custom pysimm.dump.tmp id q x y z vx vy vz
quit

################################################################################
##################################    Init    ##################################
################################################################################
units           real
atom_style      full
pair_style      lj/cut/coul/long 12.0  12.0
kspace_style    pppm 1e-4
bond_style      harmonic
angle_style     harmonic
dihedral_style  fourier
improper_style  cvff
special_bonds   amber
pair_modify     mix arithmetic
read_data       temp.lmps
  orthogonal box = (-206.107 -206.107 -206.107) to (206.107 206.107 206.107)
  reading atoms ...
  3104 atoms
  reading velocities ...
  3104 velocities
  scanning bonds ...
  scanning angles ...
  scanning dihedrals ...
  scanning impropers ...
  reading bonds ...
  3640 bonds
  reading angles ...
  7488 angles
  reading dihedrals ...
  14064 dihedrals
  reading impropers ...
  288 impropers
################################################################################

min_style cg
minimize 1e-06 1e-06 1000000 10000000
PPPM initialization ...
  G vector (1/distance) = 0.14055
  grid = 64 64 64
  stencil order = 5
  estimated absolute RMS force accuracy = 0.00174487
  estimated relative force accuracy = 5.25461e-06
  3d grid and FFT values/proc = 328509 262144
  update every 1 steps, delay 0 steps, check yes
Step Temp E_pair E_mol TotEng Press
0    290.86902    2751.9303    24830.347    30272.657   -3.4156682
Loop time of 74.8568 on 1 procs for 390 steps with 3104 atoms

Minimization stats:
  Stopping criterion = linesearch alpha is zero
  Energy initial, next-to-last, final =
  Force two-norm initial, final = 8812.16 16.873
  Force max component initial, final = 3249.77 1.26398
  Final line search alpha, max atom move = 2.59185e-11 3.27606e-11
  Iterations, force evaluations = 390 831

write_dump all custom pysimm.dump.tmp id q x y z vx vy vz
quit

################################################################################
##################################    Init    ##################################
################################################################################
units           real
atom_style      full
pair_style      lj/cut/coul/long 12.0  12.0
kspace_style    pppm 1e-4
bond_style      harmonic
angle_style     harmonic
dihedral_style  fourier
improper_style  cvff
special_bonds   amber
pair_modify     mix arithmetic
read_data       temp.lmps
  orthogonal box = (-207.558 -207.558 -207.558) to (207.558 207.558 207.558)
  reading atoms ...
  3169 atoms
  reading velocities ...
  3169 velocities
  scanning bonds ...
  scanning angles ...
  scanning dihedrals ...
  scanning impropers ...
  reading bonds ...
  3716 bonds
  reading angles ...
  7644 angles
  reading dihedrals ...
  14356 dihedrals
  reading impropers ...
  294 impropers
################################################################################

min_style cg
minimize 1e-06 1e-06 1000000 10000000
PPPM initialization ...
  G vector (1/distance) = 0.149449
  grid = 72 72 72
  stencil order = 5
  estimated absolute RMS force accuracy = 0.00120296
  estimated relative force accuracy = 3.62266e-06
  3d grid and FFT values/proc = 456533 373248
  update every 1 steps, delay 0 steps, check yes
Step Temp E_pair E_mol TotEng Press
0    292.83481    7986.1959    25280.077    36031.572    16.094101
Loop time of 205.596 on 1 procs for 739 steps with 3169 atoms

Minimization stats:
  Stopping criterion = linesearch alpha is zero
  Energy initial, next-to-last, final =
  Force two-norm initial, final = 77161.3 11.9844
  Force max component initial, final = 44985.1 0.859815
  Final line search alpha, max atom move = 7.44581e-11 6.40202e-11
  Iterations, force evaluations = 739 1524

write_dump all custom pysimm.dump.tmp id q x y z vx vy vz
quit

################################################################################
##################################    Init    ##################################
################################################################################
units           real
atom_style      full
pair_style      lj/cut/coul/long 12.0  12.0
kspace_style    pppm 1e-4
bond_style      harmonic
angle_style     harmonic
dihedral_style  fourier
improper_style  cvff
special_bonds   amber
pair_modify     mix arithmetic
read_data       temp.lmps
  orthogonal box = (-208.99 -208.99 -208.99) to (208.99 208.99 208.99)
  reading atoms ...
  3234 atoms
  reading velocities ...
  3234 velocities
  scanning bonds ...
  scanning angles ...
  scanning dihedrals ...
  scanning impropers ...
  reading bonds ...
  3792 bonds
  reading angles ...
  7800 angles
  reading dihedrals ...
  14648 dihedrals
  reading impropers ...
  300 impropers
################################################################################

min_style cg
minimize 1e-06 1e-06 1000000 10000000
PPPM initialization ...
  G vector (1/distance) = 0.148896
  grid = 72 72 72
  stencil order = 5
  estimated absolute RMS force accuracy = 0.00123159
  estimated relative force accuracy = 3.7089e-06
  3d grid and FFT values/proc = 456533 373248
  update every 1 steps, delay 0 steps, check yes
Loop time of 140.397 on 1 procs for 519 steps with 3234 atoms

Minimization stats:
  Stopping criterion = energy tolerance
  Energy initial, next-to-last, final =
  Force two-norm initial, final = 4611.36 16.1711
  Force max component initial, final = 1422.7 1.33126
  Final line search alpha, max atom move = 0.00577289 0.00768522
  Iterations, force evaluations = 519 1034

write_dump all custom pysimm.dump.tmp id q x y z vx vy vz
quit
