################################################################################
##################################    Init    ##################################
################################################################################
units           real
atom_style      full
pair_style      lj/cut/coul/long 12.0  12.0
kspace_style    pppm 1e-4
bond_style      harmonic
angle_style     harmonic
dihedral_style  fourier
special_bonds   amber
pair_modify     mix arithmetic
read_data       temp.lmps
  orthogonal box = (-62.2577 -62.2577 -62.2577) to (62.2577 62.2577 62.2577)
  reading atoms ...
  38 atoms
  reading velocities ...
  38 velocities
  scanning bonds ...
  scanning angles ...
  scanning dihedrals ...
  reading bonds ...
  37 bonds
  reading angles ...
  68 angles
  reading dihedrals ...
  80 dihedrals
################################################################################

timestep        1
fix             pysimm_md all nve/limit 0.1
run             2000
PPPM initialization ...
  G vector (1/distance) = 0.0765467
  grid = 8 8 8
  stencil order = 5
  estimated absolute RMS force accuracy = 0.0315274
  estimated relative force accuracy = 9.49438e-05
  3d grid and FFT values/proc = 2197 512
  update every 1 steps, delay 10 steps, check yes
Step Temp E_pair E_mol TotEng Press
0    2.7326907    178028.25 1.0245745e+27 1.0245745e+27    25317.482
Loop time of 0.304354 on 1 procs for 2000 steps with 38 atoms

unfix pysimm_md
min_style cg
minimize 0.001 0.001 10000 100000
PPPM initialization ...
  G vector (1/distance) = 0.0765467
  grid = 8 8 8
  stencil order = 5
  estimated absolute RMS force accuracy = 0.0315274
  estimated relative force accuracy = 9.49438e-05
  3d grid and FFT values/proc = 2197 512
Step Temp E_pair E_mol TotEng Press
2000    1119.6431   -100.91652    167.52291    190.09179 -0.0064767545
Loop time of 0.0230591 on 1 procs for 64 steps with 38 atoms

Minimization stats:
  Stopping criterion = energy tolerance
  Energy initial, next-to-last, final =
  Force two-norm initial, final = 304.717 3.4982
  Force max component initial, final = 99.6312 1.11798
  Final line search alpha, max atom move = 0.0196911 0.0220143
  Iterations, force evaluations = 64 130

write_dump all custom pysimm.dump.tmp id q x y z vx vy vz
quit

################################################################################
##################################    Init    ##################################
################################################################################
units           real
atom_style      full
pair_style      lj/cut/coul/long 12.0  12.0
kspace_style    pppm 1e-4
bond_style      harmonic
angle_style     harmonic
dihedral_style  fourier
special_bonds   amber
pair_modify     mix arithmetic
read_data       temp.lmps
  orthogonal box = (-62.2577 -62.2577 -62.2577) to (62.2577 62.2577 62.2577)
  reading atoms ...
  57 atoms
  reading velocities ...
  57 velocities
  scanning bonds ...
  scanning angles ...
  scanning dihedrals ...
  reading bonds ...
  56 bonds
  reading angles ...
  104 angles
  reading dihedrals ...
  127 dihedrals
################################################################################

timestep        1
fix             pysimm_md all nve/limit 0.1
run             2000
PPPM initialization ...
  G vector (1/distance) = 0.0839519
  grid = 9 9 9
  stencil order = 5
  estimated absolute RMS force accuracy = 0.0325389
  estimated relative force accuracy = 9.79899e-05
  3d grid and FFT values/proc = 2744 729
  update every 1 steps, delay 10 steps, check yes
Step Temp E_pair E_mol TotEng Press
0    740.66707    226925.21 1.3192765e+27 1.3192765e+27    32304.796
Loop time of 0.48136 on 1 procs for 2000 steps with 57 atoms

unfix pysimm_md
min_style cg
minimize 0.001 0.001 10000 100000
PPPM initialization ...
  G vector (1/distance) = 0.0839519
  grid = 9 9 9
  stencil order = 5
  estimated absolute RMS force accuracy = 0.0325389
  estimated relative force accuracy = 9.79899e-05
  3d grid and FFT values/proc = 2744 729
Step Temp E_pair E_mol TotEng Press
2000    944.17058   -141.07196    343.90221    360.43626   -4.1233357
Loop time of 0.0461659 on 1 procs for 85 steps with 57 atoms

Minimization stats:
  Stopping criterion = energy tolerance
  Energy initial, next-to-last, final =
  Force two-norm initial, final = 421.211 7.52351
  Force max component initial, final = 94.7241 2.55185
  Final line search alpha, max atom move = 0.0133369 0.0340337
  Iterations, force evaluations = 85 170

write_dump all custom pysimm.dump.tmp id q x y z vx vy vz
quit

################################################################################
##################################    Init    ##################################
################################################################################
units           real
atom_style      full
pair_style      lj/cut/coul/long 12.0  12.0
kspace_style    pppm 1e-4
bond_style      harmonic
angle_style     harmonic
dihedral_style  fourier
special_bonds   amber
pair_modify     mix arithmetic
read_data       temp.lmps
  orthogonal box = (-62.2577 -62.2577 -62.2577) to (62.2577 62.2577 62.2577)
  reading atoms ...
  76 atoms
  reading velocities ...
  76 velocities
  scanning bonds ...
  scanning angles ...
  scanning dihedrals ...
  reading bonds ...
  75 bonds
  reading angles ...
  140 angles
  reading dihedrals ...
  174 dihedrals
################################################################################

timestep        1
fix             pysimm_md all nve/limit 0.1
run             2000
PPPM initialization ...
  G vector (1/distance) = 0.0909445
  grid = 10 10 10
  stencil order = 5
  estimated absolute RMS force accuracy = 0.0315083
  estimated relative force accuracy = 9.48862e-05
  3d grid and FFT values/proc = 3375 1000
  update every 1 steps, delay 10 steps, check yes
Step Temp E_pair E_mol TotEng Press
0    705.65446     11769326 6.5887269e+26 6.5887269e+26 -2.0828104e+11
Loop time of 0.661943 on 1 procs for 2000 steps with 76 atoms

unfix pysimm_md
min_style cg
minimize 0.001 0.001 10000 100000
PPPM initialization ...
  G vector (1/distance) = 0.0909445
  grid = 10 10 10
  stencil order = 5
  estimated absolute RMS force accuracy = 0.0315083
  estimated relative force accuracy = 9.48862e-05
  3d grid and FFT values/proc = 3375 1000
Step Temp E_pair E_mol TotEng Press
2000    947.20705    -191.7509     464.0802    484.08762   0.13332471
Loop time of 0.0515258 on 1 procs for 65 steps with 76 atoms

Minimization stats:
  Stopping criterion = energy tolerance
  Energy initial, next-to-last, final =
  Force two-norm initial, final = 499.069 13.2953
  Force max component initial, final = 116.965 6.26752
  Final line search alpha, max atom move = 0.00790943 0.0495725
  Iterations, force evaluations = 65 130

write_dump all custom pysimm.dump.tmp id q x y z vx vy vz
quit

################################################################################
##################################    Init    ##################################
################################################################################
units           real
atom_style      full
pair_style      lj/cut/coul/long 12.0  12.0
kspace_style    pppm 1e-4
bond_style      harmonic
angle_style     harmonic
dihedral_style  fourier
special_bonds   amber
pair_modify     mix arithmetic
read_data       temp.lmps
  orthogonal box = (-62.2577 -62.2577 -62.2577) to (62.2577 62.2577 62.2577)
  reading atoms ...
  95 atoms
  reading velocities ...
  95 velocities
  scanning bonds ...
  scanning angles ...
  scanning dihedrals ...
  reading bonds ...
  94 bonds
  reading angles ...
  176 angles
  reading dihedrals ...
  221 dihedrals
################################################################################

timestep        1
fix             pysimm_md all nve/limit 0.1
run             2000
PPPM initialization ...
  G vector (1/distance) = 0.0909432
  grid = 10 10 10
  stencil order = 5
  estimated absolute RMS force accuracy = 0.0352256
  estimated relative force accuracy = 0.000106081
  3d grid and FFT values/proc = 3375 1000
  update every 1 steps, delay 10 steps, check yes
Step Temp E_pair E_mol TotEng Press
0    756.28795 4.0374668e+09 7.1881155e+26 7.1881155e+26 5.7362207e+08
Loop time of 0.792567 on 1 procs for 2000 steps with 95 atoms

unfix pysimm_md
min_style cg
minimize 0.001 0.001 10000 100000
PPPM initialization ...
  G vector (1/distance) = 0.0909432
  grid = 10 10 10
  stencil order = 5
  estimated absolute RMS force accuracy = 0.0352256
  estimated relative force accuracy = 0.000106081
  3d grid and FFT values/proc = 3375 1000
Step Temp E_pair E_mol TotEng Press
2000    829.87366   -250.45123    633.71155    615.78772   -4.0979595
Loop time of 0.064348 on 1 procs for 43 steps with 95 atoms

Minimization stats:
  Stopping criterion = linesearch alpha is zero
  Energy initial, next-to-last, final =
  Force two-norm initial, final = 525.311 25.6913
  Force max component initial, final = 168.827 9.32837
  Final line search alpha, max atom move = 1.57242e-11 1.46681e-10
  Iterations, force evaluations = 43 141

write_dump all custom pysimm.dump.tmp id q x y z vx vy vz
quit

################################################################################
##################################    Init    ##################################
################################################################################
units           real
atom_style      full
pair_style      lj/cut/coul/long 12.0  12.0
kspace_style    pppm 1e-4
bond_style      harmonic
angle_style     harmonic
dihedral_style  fourier
special_bonds   amber
pair_modify     mix arithmetic
read_data       temp.lmps
  orthogonal box = (-62.2577 -62.2577 -62.2577) to (62.2577 62.2577 62.2577)
  reading atoms ...
  114 atoms
  reading velocities ...
  114 velocities
  scanning bonds ...
  scanning angles ...
  scanning dihedrals ...
  reading bonds ...
  113 bonds
  reading angles ...
  212 angles
  reading dihedrals ...
  268 dihedrals
################################################################################

timestep        1
fix             pysimm_md all nve/limit 0.1
run             2000
PPPM initialization ...
  G vector (1/distance) = 0.103781
  grid = 12 12 12
  stencil order = 5
  estimated absolute RMS force accuracy = 0.0269221
  estimated relative force accuracy = 8.10752e-05
  3d grid and FFT values/proc = 4913 1728
  update every 1 steps, delay 10 steps, check yes
Step Temp E_pair E_mol TotEng Press
0    690.78483    383316.81 4.0965877e+27 4.0965877e+27    54555.943
Loop time of 1.06266 on 1 procs for 2000 steps with 114 atoms

unfix pysimm_md
min_style cg
minimize 0.001 0.001 10000 100000
PPPM initialization ...
  G vector (1/distance) = 0.103781
  grid = 12 12 12
  stencil order = 5
  estimated absolute RMS force accuracy = 0.0269221
  estimated relative force accuracy = 8.10752e-05
  3d grid and FFT values/proc = 4913 1728
Step Temp E_pair E_mol TotEng Press
2000    923.01874   -285.63563    749.11395    774.38014  0.015568007
Loop time of 0.062762 on 1 procs for 46 steps with 114 atoms

Minimization stats:
  Stopping criterion = energy tolerance
  Energy initial, next-to-last, final =
  Force two-norm initial, final = 581.183 19.5849
  Force max component initial, final = 128.186 8.85017
  Final line search alpha, max atom move = 0.00805387 0.0712781
  Iterations, force evaluations = 46 92

write_dump all custom pysimm.dump.tmp id q x y z vx vy vz
quit

################################################################################
##################################    Init    ##################################
################################################################################
units           real
atom_style      full
pair_style      lj/cut/coul/long 12.0  12.0
kspace_style    pppm 1e-4
bond_style      harmonic
angle_style     harmonic
dihedral_style  fourier
special_bonds   amber
pair_modify     mix arithmetic
read_data       temp.lmps
  orthogonal box = (-62.2577 -62.2577 -62.2577) to (62.2577 62.2577 62.2577)
  reading atoms ...
  133 atoms
  reading velocities ...
  133 velocities
  scanning bonds ...
  scanning angles ...
  scanning dihedrals ...
  reading bonds ...
  132 bonds
  reading angles ...
  248 angles
  reading dihedrals ...
  315 dihedrals
################################################################################

timestep        1
fix             pysimm_md all nve/limit 0.1
run             2000
PPPM initialization ...
  G vector (1/distance) = 0.103781
  grid = 12 12 12
  stencil order = 5
  estimated absolute RMS force accuracy = 0.0290792
  estimated relative force accuracy = 8.75711e-05
  3d grid and FFT values/proc = 4913 1728
  update every 1 steps, delay 10 steps, check yes
Step Temp E_pair E_mol TotEng Press
0    790.54297     66755866 2.7775589e+29 2.7775589e+29 -1.216371e+14
Loop time of 1.25133 on 1 procs for 2000 steps with 133 atoms

unfix pysimm_md
min_style cg
minimize 0.001 0.001 10000 100000
PPPM initialization ...
  G vector (1/distance) = 0.103781
  grid = 12 12 12
  stencil order = 5
  estimated absolute RMS force accuracy = 0.0290792
  estimated relative force accuracy = 8.75711e-05
  3d grid and FFT values/proc = 4913 1728
Step Temp E_pair E_mol TotEng Press
2000     837.1976   -336.08318    895.89981     889.2262    4.8774786
Loop time of 0.063843 on 1 procs for 42 steps with 133 atoms

Minimization stats:
  Stopping criterion = energy tolerance
  Energy initial, next-to-last, final =
  Force two-norm initial, final = 567.341 23.5971
  Force max component initial, final = 101.196 6.9264
  Final line search alpha, max atom move = 0.00545691 0.0377967
  Iterations, force evaluations = 42 84

write_dump all custom pysimm.dump.tmp id q x y z vx vy vz
quit

################################################################################
##################################    Init    ##################################
################################################################################
units           real
atom_style      full
pair_style      lj/cut/coul/long 12.0  12.0
kspace_style    pppm 1e-4
bond_style      harmonic
angle_style     harmonic
dihedral_style  fourier
special_bonds   amber
pair_modify     mix arithmetic
read_data       temp.lmps
  orthogonal box = (-62.2577 -62.2577 -62.2577) to (62.2577 62.2577 62.2577)
  reading atoms ...
  152 atoms
  reading velocities ...
  152 velocities
  scanning bonds ...
  scanning angles ...
  scanning dihedrals ...
  reading bonds ...
  151 bonds
  reading angles ...
  284 angles
  reading dihedrals ...
  362 dihedrals
################################################################################

timestep        1
fix             pysimm_md all nve/limit 0.1
run             2000
PPPM initialization ...
  G vector (1/distance) = 0.103781
  grid = 12 12 12
  stencil order = 5
  estimated absolute RMS force accuracy = 0.0310869
  estimated relative force accuracy = 9.36174e-05
  3d grid and FFT values/proc = 4913 1728
  update every 1 steps, delay 10 steps, check yes
Step Temp E_pair E_mol TotEng Press
0    732.18977 3.3139501e+09 2.6516428e+25 2.6516428e+25 1.0461219e+11
Loop time of 1.39231 on 1 procs for 2000 steps with 152 atoms

unfix pysimm_md
min_style cg
minimize 0.001 0.001 10000 100000
PPPM initialization ...
  G vector (1/distance) = 0.103781
  grid = 12 12 12
  stencil order = 5
  estimated absolute RMS force accuracy = 0.0310869
  estimated relative force accuracy = 9.36174e-05
  3d grid and FFT values/proc = 4913 1728
Step Temp E_pair E_mol TotEng Press
2000    849.06111   -397.78068    1096.3999    1080.7836   -11.387228
Loop time of 0.0782371 on 1 procs for 46 steps with 152 atoms

Minimization stats:
  Stopping criterion = energy tolerance
  Energy initial, next-to-last, final =
  Force two-norm initial, final = 816.524 28.2396
  Force max component initial, final = 175.4 8.97325
  Final line search alpha, max atom move = 0.00668811 0.0600141
  Iterations, force evaluations = 46 92

write_dump all custom pysimm.dump.tmp id q x y z vx vy vz
quit

################################################################################
##################################    Init    ##################################
################################################################################
units           real
atom_style      full
pair_style      lj/cut/coul/long 12.0  12.0
kspace_style    pppm 1e-4
bond_style      harmonic
angle_style     harmonic
dihedral_style  fourier
special_bonds   amber
pair_modify     mix arithmetic
read_data       temp.lmps
  orthogonal box = (-62.2577 -62.2577 -62.2577) to (62.2577 62.2577 62.2577)
  reading atoms ...
  171 atoms
  reading velocities ...
  171 velocities
  scanning bonds ...
  scanning angles ...
  scanning dihedrals ...
  reading bonds ...
  170 bonds
  reading angles ...
  320 angles
  reading dihedrals ...
  409 dihedrals
################################################################################

timestep        1
fix             pysimm_md all nve/limit 0.1
run             2000
PPPM initialization ...
  G vector (1/distance) = 0.103785
  grid = 12 12 12
  stencil order = 5
  estimated absolute RMS force accuracy = 0.0329757
  estimated relative force accuracy = 9.93053e-05
  3d grid and FFT values/proc = 4913 1728
  update every 1 steps, delay 10 steps, check yes
Step Temp E_pair E_mol TotEng Press
0    754.46341 2.7615332e+09 1.4896164e+25 1.4896164e+25 3.9234471e+08
Loop time of 1.51505 on 1 procs for 2000 steps with 171 atoms

unfix pysimm_md
min_style cg
minimize 0.001 0.001 10000 100000
PPPM initialization ...
  G vector (1/distance) = 0.103785
  grid = 12 12 12
  stencil order = 5
  estimated absolute RMS force accuracy = 0.0329757
  estimated relative force accuracy = 9.93053e-05
  3d grid and FFT values/proc = 4913 1728
Step Temp E_pair E_mol TotEng Press
2000    801.03616   -438.40336    1186.8517    1154.3635    8.7770349
Loop time of 0.0930791 on 1 procs for 48 steps with 171 atoms

Minimization stats:
  Stopping criterion = energy tolerance
  Energy initial, next-to-last, final =
  Force two-norm initial, final = 753.574 24.4003
  Force max component initial, final = 194.027 9.07502
  Final line search alpha, max atom move = 0.00627393 0.0569361
  Iterations, force evaluations = 48 96

write_dump all custom pysimm.dump.tmp id q x y z vx vy vz
quit

################################################################################
##################################    Init    ##################################
################################################################################
units           real
atom_style      full
pair_style      lj/cut/coul/long 12.0  12.0
kspace_style    pppm 1e-4
bond_style      harmonic
angle_style     harmonic
dihedral_style  fourier
special_bonds   amber
pair_modify     mix arithmetic
read_data       temp.lmps
  orthogonal box = (-62.2577 -62.2577 -62.2577) to (62.2577 62.2577 62.2577)
  reading atoms ...
  190 atoms
  reading velocities ...
  190 velocities
  scanning bonds ...
  scanning angles ...
  scanning dihedrals ...
  reading bonds ...
  189 bonds
  reading angles ...
  356 angles
  reading dihedrals ...
  456 dihedrals
################################################################################

timestep        1
fix             pysimm_md all nve/limit 0.1
run             2000
PPPM initialization ...
  G vector (1/distance) = 0.103782
  grid = 12 12 12
  stencil order = 5
  estimated absolute RMS force accuracy = 0.0347572
  estimated relative force accuracy = 0.00010467
  3d grid and FFT values/proc = 4913 1728
  update every 1 steps, delay 10 steps, check yes
Step Temp E_pair E_mol TotEng Press
0    720.77619 9.4857416e+09 2.0796704e+25 2.0796704e+25 -5.0722997e+10
Loop time of 1.6711 on 1 procs for 2000 steps with 190 atoms

unfix pysimm_md
min_style cg
minimize 0.001 0.001 10000 100000
PPPM initialization ...
  G vector (1/distance) = 0.103782
  grid = 12 12 12
  stencil order = 5
  estimated absolute RMS force accuracy = 0.0347572
  estimated relative force accuracy = 0.00010467
  3d grid and FFT values/proc = 4913 1728
Step Temp E_pair E_mol TotEng Press
2000    770.19691    -489.7818    1380.7895    1324.9159   -12.394343
Loop time of 0.101176 on 1 procs for 48 steps with 190 atoms

Minimization stats:
  Stopping criterion = energy tolerance
  Energy initial, next-to-last, final =
  Force two-norm initial, final = 851.14 27.5133
  Force max component initial, final = 194.486 6.59847
  Final line search alpha, max atom move = 0.00306734 0.0202398
  Iterations, force evaluations = 48 95

write_dump all custom pysimm.dump.tmp id q x y z vx vy vz
quit

################################################################################
##################################    Init    ##################################
################################################################################
units           real
atom_style      full
pair_style      lj/cut/coul/long 12.0  12.0
kspace_style    pppm 1e-4
bond_style      harmonic
angle_style     harmonic
dihedral_style  fourier
special_bonds   amber
pair_modify     mix arithmetic
read_data       temp.lmps
  orthogonal box = (-78.4398 -78.4398 -78.4398) to (78.4398 78.4398 78.4398)
  reading atoms ...
  209 atoms
  reading velocities ...
  209 velocities
  scanning bonds ...
  scanning angles ...
  scanning dihedrals ...
  reading bonds ...
  208 bonds
  reading angles ...
  392 angles
  reading dihedrals ...
  503 dihedrals
################################################################################

timestep        1
fix             pysimm_md all nve/limit 0.1
run             2000
PPPM initialization ...
  G vector (1/distance) = 0.103207
  grid = 15 15 15
  stencil order = 5
  estimated absolute RMS force accuracy = 0.0262212
  estimated relative force accuracy = 7.89643e-05
  3d grid and FFT values/proc = 8000 3375
  update every 1 steps, delay 10 steps, check yes
Step Temp E_pair E_mol TotEng Press
0    700.08529 5.1717857e+08    2407.8132 5.1718141e+08     36739184
Loop time of 2.46703 on 1 procs for 2000 steps with 209 atoms

unfix pysimm_md
min_style cg
minimize 0.001 0.001 10000 100000
PPPM initialization ...
  G vector (1/distance) = 0.103207
  grid = 15 15 15
  stencil order = 5
  estimated absolute RMS force accuracy = 0.0262212
  estimated relative force accuracy = 7.89643e-05
  3d grid and FFT values/proc = 8000 3375
Step Temp E_pair E_mol TotEng Press
2000    760.62916   -511.44534    1514.5095    1474.6607   0.28461575
Loop time of 0.102417 on 1 procs for 35 steps with 209 atoms

Minimization stats:
  Stopping criterion = energy tolerance
  Energy initial, next-to-last, final =
  Force two-norm initial, final = 796.403 45.4441
  Force max component initial, final = 111.88 11.5713
  Final line search alpha, max atom move = 0.00374702 0.0433579
  Iterations, force evaluations = 35 70

write_dump all custom pysimm.dump.tmp id q x y z vx vy vz
quit

################################################################################
##################################    Init    ##################################
################################################################################
units           real
atom_style      full
pair_style      lj/cut/coul/long 12.0  12.0
kspace_style    pppm 1e-4
bond_style      harmonic
angle_style     harmonic
dihedral_style  fourier
special_bonds   amber
pair_modify     mix arithmetic
read_data       temp.lmps
  orthogonal box = (-80.9718 -80.9718 -80.9718) to (80.9718 80.9718 80.9718)
  reading atoms ...
  228 atoms
  reading velocities ...
  228 velocities
  scanning bonds ...
  scanning angles ...
  scanning dihedrals ...
  reading bonds ...
  227 bonds
  reading angles ...
  428 angles
  reading dihedrals ...
  550 dihedrals
################################################################################

timestep        1
fix             pysimm_md all nve/limit 0.1
run             2000
PPPM initialization ...
  G vector (1/distance) = 0.100914
  grid = 15 15 15
  stencil order = 5
  estimated absolute RMS force accuracy = 0.0279332
  estimated relative force accuracy = 8.41201e-05
  3d grid and FFT values/proc = 8000 3375
  update every 1 steps, delay 10 steps, check yes
Step Temp E_pair E_mol TotEng Press
0    697.18689 2.2364731e+09    2536.5687 2.2364761e+09 1.4443009e+08
Loop time of 2.56668 on 1 procs for 2000 steps with 228 atoms

unfix pysimm_md
min_style cg
minimize 0.001 0.001 10000 100000
PPPM initialization ...
  G vector (1/distance) = 0.100914
  grid = 15 15 15
  stencil order = 5
  estimated absolute RMS force accuracy = 0.0279332
  estimated relative force accuracy = 8.41201e-05
  3d grid and FFT values/proc = 8000 3375
Step Temp E_pair E_mol TotEng Press
2000    708.84098     -605.568     1633.768    1507.8329    2.9820283
Loop time of 0.088238 on 1 procs for 28 steps with 228 atoms

Minimization stats:
  Stopping criterion = energy tolerance
  Energy initial, next-to-last, final =
  Force two-norm initial, final = 820.503 47.7156
  Force max component initial, final = 185.001 10.762
  Final line search alpha, max atom move = 0.00377513 0.0406278
  Iterations, force evaluations = 28 55

write_dump all custom pysimm.dump.tmp id q x y z vx vy vz
quit

################################################################################
##################################    Init    ##################################
################################################################################
units           real
atom_style      full
pair_style      lj/cut/coul/long 12.0  12.0
kspace_style    pppm 1e-4
bond_style      harmonic
angle_style     harmonic
dihedral_style  fourier
special_bonds   amber
pair_modify     mix arithmetic
read_data       temp.lmps
  orthogonal box = (-83.3547 -83.3547 -83.3547) to (83.3547 83.3547 83.3547)
  reading atoms ...
  247 atoms
  reading velocities ...
  247 velocities
  scanning bonds ...
  scanning angles ...
  scanning dihedrals ...
  reading bonds ...
  246 bonds
  reading angles ...
  464 angles
  reading dihedrals ...
  597 dihedrals
################################################################################

timestep        1
fix             pysimm_md all nve/limit 0.1
run             2000
PPPM initialization ...
  G vector (1/distance) = 0.0988428
  grid = 15 15 15
  stencil order = 5
  estimated absolute RMS force accuracy = 0.029545
  estimated relative force accuracy = 8.89738e-05
  3d grid and FFT values/proc = 8000 3375
  update every 1 steps, delay 10 steps, check yes
Step Temp E_pair E_mol TotEng Press
0    654.29845    686587.89    2683.9214     689751.6    40687.668
Loop time of 2.69572 on 1 procs for 2000 steps with 247 atoms

unfix pysimm_md
min_style cg
minimize 0.001 0.001 10000 100000
PPPM initialization ...
  G vector (1/distance) = 0.0988428
  grid = 15 15 15
  stencil order = 5
  estimated absolute RMS force accuracy = 0.029545
  estimated relative force accuracy = 8.89738e-05
  3d grid and FFT values/proc = 8000 3375
Step Temp E_pair E_mol TotEng Press
2000    710.02917   -639.64014    1706.5035     1587.513    4.5013056
Loop time of 0.0928311 on 1 procs for 27 steps with 247 atoms

Minimization stats:
  Stopping criterion = energy tolerance
  Energy initial, next-to-last, final =
  Force two-norm initial, final = 713.289 48.6876
  Force max component initial, final = 98.4051 12.5901
  Final line search alpha, max atom move = 0.0042137 0.0530509
  Iterations, force evaluations = 27 54

write_dump all custom pysimm.dump.tmp id q x y z vx vy vz
quit

################################################################################
##################################    Init    ##################################
################################################################################
units           real
atom_style      full
pair_style      lj/cut/coul/long 12.0  12.0
kspace_style    pppm 1e-4
bond_style      harmonic
angle_style     harmonic
dihedral_style  fourier
special_bonds   amber
pair_modify     mix arithmetic
read_data       temp.lmps
  orthogonal box = (-85.6086 -85.6086 -85.6086) to (85.6086 85.6086 85.6086)
  reading atoms ...
  266 atoms
  reading velocities ...
  266 velocities
  scanning bonds ...
  scanning angles ...
  scanning dihedrals ...
  reading bonds ...
  265 bonds
  reading angles ...
  500 angles
  reading dihedrals ...
  644 dihedrals
################################################################################

timestep        1
fix             pysimm_md all nve/limit 0.1
run             2000
PPPM initialization ...
  G vector (1/distance) = 0.0969566
  grid = 15 15 15
  stencil order = 5
  estimated absolute RMS force accuracy = 0.0310664
  estimated relative force accuracy = 9.35555e-05
  3d grid and FFT values/proc = 8000 3375
  update every 1 steps, delay 10 steps, check yes
Step Temp E_pair E_mol TotEng Press
0    659.31202     50732678    2767.7485     50735967    2772351.7
Loop time of 2.90445 on 1 procs for 2000 steps with 266 atoms

unfix pysimm_md
min_style cg
minimize 0.001 0.001 10000 100000
PPPM initialization ...
  G vector (1/distance) = 0.0969566
  grid = 15 15 15
  stencil order = 5
  estimated absolute RMS force accuracy = 0.0310664
  estimated relative force accuracy = 9.35555e-05
  3d grid and FFT values/proc = 8000 3375
Step Temp E_pair E_mol TotEng Press
2000    684.82977   -686.73965    1840.6573    1694.8747   -1.0474586
Loop time of 0.070473 on 1 procs for 19 steps with 266 atoms

Minimization stats:
  Stopping criterion = energy tolerance
  Energy initial, next-to-last, final =
  Force two-norm initial, final = 732.753 65.3759
  Force max component initial, final = 145.56 13.3764
  Final line search alpha, max atom move = 0.00246592 0.0329851
  Iterations, force evaluations = 19 38

write_dump all custom pysimm.dump.tmp id q x y z vx vy vz
quit

################################################################################
##################################    Init    ##################################
################################################################################
units           real
atom_style      full
pair_style      lj/cut/coul/long 12.0  12.0
kspace_style    pppm 1e-4
bond_style      harmonic
angle_style     harmonic
dihedral_style  fourier
special_bonds   amber
pair_modify     mix arithmetic
read_data       temp.lmps
  orthogonal box = (-87.7497 -87.7497 -87.7497) to (87.7497 87.7497 87.7497)
  reading atoms ...
  285 atoms
  reading velocities ...
  285 velocities
  scanning bonds ...
  scanning angles ...
  scanning dihedrals ...
  reading bonds ...
  284 bonds
  reading angles ...
  536 angles
  reading dihedrals ...
  691 dihedrals
################################################################################

timestep        1
fix             pysimm_md all nve/limit 0.1
run             2000
PPPM initialization ...
  G vector (1/distance) = 0.0952271
  grid = 15 15 15
  stencil order = 5
  estimated absolute RMS force accuracy = 0.0325061
  estimated relative force accuracy = 9.78912e-05
  3d grid and FFT values/proc = 8000 3375
  update every 1 steps, delay 10 steps, check yes
Step Temp E_pair E_mol TotEng Press
0    639.19192 4.6630471e+20    2907.1935 4.6630471e+20 2.3660638e+19
Loop time of 3.02398 on 1 procs for 2000 steps with 285 atoms

unfix pysimm_md
min_style cg
minimize 0.001 0.001 10000 100000
PPPM initialization ...
  G vector (1/distance) = 0.0952271
  grid = 15 15 15
  stencil order = 5
  estimated absolute RMS force accuracy = 0.0325061
  estimated relative force accuracy = 9.78912e-05
  3d grid and FFT values/proc = 8000 3375
Step Temp E_pair E_mol TotEng Press
2000    632.02565   -718.70714    1900.4961    1716.8303    1.4418278
Loop time of 0.129257 on 1 procs for 34 steps with 285 atoms

Minimization stats:
  Stopping criterion = energy tolerance
  Energy initial, next-to-last, final =
  Force two-norm initial, final = 783.93 45.8801
  Force max component initial, final = 119.748 9.95045
  Final line search alpha, max atom move = 0.002386 0.0237417
  Iterations, force evaluations = 34 68

write_dump all custom pysimm.dump.tmp id q x y z vx vy vz
quit

################################################################################
##################################    Init    ##################################
################################################################################
units           real
atom_style      full
pair_style      lj/cut/coul/long 12.0  12.0
kspace_style    pppm 1e-4
bond_style      harmonic
angle_style     harmonic
dihedral_style  fourier
special_bonds   amber
pair_modify     mix arithmetic
read_data       temp.lmps
  orthogonal box = (-89.7912 -89.7912 -89.7912) to (89.7912 89.7912 89.7912)
  reading atoms ...
  304 atoms
  reading velocities ...
  304 velocities
  scanning bonds ...
  scanning angles ...
  scanning dihedrals ...
  reading bonds ...
  303 bonds
  reading angles ...
  572 angles
  reading dihedrals ...
  738 dihedrals
################################################################################

timestep        1
fix             pysimm_md all nve/limit 0.1
run             2000
PPPM initialization ...
  G vector (1/distance) = 0.093632
  grid = 15 15 15
  stencil order = 5
  estimated absolute RMS force accuracy = 0.0338717
  estimated relative force accuracy = 0.000102004
  3d grid and FFT values/proc = 8000 3375
  update every 1 steps, delay 10 steps, check yes
Step Temp E_pair E_mol TotEng Press
0    592.56042 2.507867e+10    2941.9797 2.5078674e+10 1.1876782e+09
Loop time of 3.21894 on 1 procs for 2000 steps with 304 atoms

unfix pysimm_md
min_style cg
minimize 0.001 0.001 10000 100000
PPPM initialization ...
  G vector (1/distance) = 0.093632
  grid = 15 15 15
  stencil order = 5
  estimated absolute RMS force accuracy = 0.0338717
  estimated relative force accuracy = 0.000102004
  3d grid and FFT values/proc = 8000 3375
Step Temp E_pair E_mol TotEng Press
2000     605.3589   -788.07349    2030.7668    1789.4446    1.1321831
Loop time of 0.112908 on 1 procs for 25 steps with 304 atoms

Minimization stats:
  Stopping criterion = energy tolerance
  Energy initial, next-to-last, final =
  Force two-norm initial, final = 850.715 48.6847
  Force max component initial, final = 176.903 9.47646
  Final line search alpha, max atom move = 0.00373445 0.0353894
  Iterations, force evaluations = 25 50

write_dump all custom pysimm.dump.tmp id q x y z vx vy vz
quit

################################################################################
##################################    Init    ##################################
################################################################################
units           real
atom_style      full
pair_style      lj/cut/coul/long 12.0  12.0
kspace_style    pppm 1e-4
bond_style      harmonic
angle_style     harmonic
dihedral_style  fourier
special_bonds   amber
pair_modify     mix arithmetic
read_data       temp.lmps
  orthogonal box = (-91.7437 -91.7437 -91.7437) to (91.7437 91.7437 91.7437)
  reading atoms ...
  323 atoms
  reading velocities ...
  323 velocities
  scanning bonds ...
  scanning angles ...
  scanning dihedrals ...
  reading bonds ...
  322 bonds
  reading angles ...
  608 angles
  reading dihedrals ...
  785 dihedrals
################################################################################

timestep        1
fix             pysimm_md all nve/limit 0.1
run             2000
PPPM initialization ...
  G vector (1/distance) = 0.0921532
  grid = 15 15 15
  stencil order = 5
  estimated absolute RMS force accuracy = 0.0351696
  estimated relative force accuracy = 0.000105912
  3d grid and FFT values/proc = 8000 3375
  update every 1 steps, delay 10 steps, check yes
Step Temp E_pair E_mol TotEng Press
0    569.79593 4.9077913e+08    3048.2109 4.9078272e+08     21789855
Loop time of 3.44242 on 1 procs for 2000 steps with 323 atoms

unfix pysimm_md
min_style cg
minimize 0.001 0.001 10000 100000
PPPM initialization ...
  G vector (1/distance) = 0.0921532
  grid = 15 15 15
  stencil order = 5
  estimated absolute RMS force accuracy = 0.0351696
  estimated relative force accuracy = 0.000105912
  3d grid and FFT values/proc = 8000 3375
Step Temp E_pair E_mol TotEng Press
2000    639.62297   -834.24497    2266.9067    2046.5852    1.5871999
Loop time of 0.124715 on 1 procs for 29 steps with 323 atoms

Minimization stats:
  Stopping criterion = energy tolerance
  Energy initial, next-to-last, final =
  Force two-norm initial, final = 869.031 54.6271
  Force max component initial, final = 113.026 11.2837
  Final line search alpha, max atom move = 0.00461724 0.0520994
  Iterations, force evaluations = 29 58

write_dump all custom pysimm.dump.tmp id q x y z vx vy vz
quit

################################################################################
##################################    Init    ##################################
################################################################################
units           real
atom_style      full
pair_style      lj/cut/coul/long 12.0  12.0
kspace_style    pppm 1e-4
bond_style      harmonic
angle_style     harmonic
dihedral_style  fourier
special_bonds   amber
pair_modify     mix arithmetic
read_data       temp.lmps
  orthogonal box = (-93.6166 -93.6166 -93.6166) to (93.6166 93.6166 93.6166)
  reading atoms ...
  342 atoms
  reading velocities ...
  342 velocities
  scanning bonds ...
  scanning angles ...
  scanning dihedrals ...
  reading bonds ...
  341 bonds
  reading angles ...
  644 angles
  reading dihedrals ...
  832 dihedrals
################################################################################

timestep        1
fix             pysimm_md all nve/limit 0.1
run             2000
PPPM initialization ...
  G vector (1/distance) = 0.0952145
  grid = 16 16 16
  stencil order = 5
  estimated absolute RMS force accuracy = 0.0323255
  estimated relative force accuracy = 9.73472e-05
  3d grid and FFT values/proc = 9261 4096
  update every 1 steps, delay 10 steps, check yes
Step Temp E_pair E_mol TotEng Press
0    604.13233 1.3242445e+08 6.089026e+25 6.089026e+25 1.9149166e+10
Loop time of 3.70765 on 1 procs for 2000 steps with 342 atoms

unfix pysimm_md
min_style cg
minimize 0.001 0.001 10000 100000
PPPM initialization ...
  G vector (1/distance) = 0.0952145
  grid = 16 16 16
  stencil order = 5
  estimated absolute RMS force accuracy = 0.0323255
  estimated relative force accuracy = 9.73472e-05
  3d grid and FFT values/proc = 9261 4096
Step Temp E_pair E_mol TotEng Press
2000    617.74208    -882.0928    2315.3451      2061.16   -4.1918753
Loop time of 0.207373 on 1 procs for 43 steps with 342 atoms

Minimization stats:
  Stopping criterion = energy tolerance
  Energy initial, next-to-last, final =
  Force two-norm initial, final = 809.666 40.8513
  Force max component initial, final = 125.501 7.58145
  Final line search alpha, max atom move = 0.00352844 0.0267507
  Iterations, force evaluations = 43 86

write_dump all custom pysimm.dump.tmp id q x y z vx vy vz
quit

################################################################################
##################################    Init    ##################################
################################################################################
units           real
atom_style      full
pair_style      lj/cut/coul/long 12.0  12.0
kspace_style    pppm 1e-4
bond_style      harmonic
angle_style     harmonic
dihedral_style  fourier
special_bonds   amber
pair_modify     mix arithmetic
read_data       temp.lmps
  orthogonal box = (-95.4173 -95.4173 -95.4173) to (95.4173 95.4173 95.4173)
  reading atoms ...
  361 atoms
  reading velocities ...
  361 velocities
  scanning bonds ...
  scanning angles ...
  scanning dihedrals ...
  reading bonds ...
  360 bonds
  reading angles ...
  680 angles
  reading dihedrals ...
  879 dihedrals
################################################################################

timestep        1
fix             pysimm_md all nve/limit 0.1
run             2000
PPPM initialization ...
  G vector (1/distance) = 0.0938921
  grid = 16 16 16
  stencil order = 5
  estimated absolute RMS force accuracy = 0.033459
  estimated relative force accuracy = 0.000100761
  3d grid and FFT values/proc = 9261 4096
  update every 1 steps, delay 10 steps, check yes
Step Temp E_pair E_mol TotEng Press
0    585.27952    79661.882    3260.1621    83550.103     3181.513
Loop time of 3.862 on 1 procs for 2000 steps with 361 atoms

unfix pysimm_md
min_style cg
minimize 0.001 0.001 10000 100000
PPPM initialization ...
  G vector (1/distance) = 0.0938921
  grid = 16 16 16
  stencil order = 5
  estimated absolute RMS force accuracy = 0.033459
  estimated relative force accuracy = 0.000100761
  3d grid and FFT values/proc = 9261 4096
Step Temp E_pair E_mol TotEng Press
2000    572.27653   -961.08949    2481.4901    2134.5057    1.4818758
Loop time of 0.301971 on 1 procs for 29 steps with 361 atoms

Minimization stats:
  Stopping criterion = linesearch alpha is zero
  Energy initial, next-to-last, final =
  Force two-norm initial, final = 850.694 65.1494
  Force max component initial, final = 115.346 16.3585
  Final line search alpha, max atom move = 2.17899e-12 3.56451e-11
  Iterations, force evaluations = 29 117

write_dump all custom pysimm.dump.tmp id q x y z vx vy vz
quit

################################################################################
##################################    Init    ##################################
################################################################################
units           real
atom_style      full
pair_style      lj/cut/coul/long 12.0  12.0
kspace_style    pppm 1e-4
bond_style      harmonic
angle_style     harmonic
dihedral_style  fourier
special_bonds   amber
pair_modify     mix arithmetic
read_data       temp.lmps
  orthogonal box = (-97.1526 -97.1526 -97.1526) to (97.1526 97.1526 97.1526)
  reading atoms ...
  380 atoms
  reading velocities ...
  380 velocities
  scanning bonds ...
  scanning angles ...
  scanning dihedrals ...
  reading bonds ...
  379 bonds
  reading angles ...
  716 angles
  reading dihedrals ...
  926 dihedrals
################################################################################

timestep        1
fix             pysimm_md all nve/limit 0.1
run             2000
PPPM initialization ...
  G vector (1/distance) = 0.0926505
  grid = 16 16 16
  stencil order = 5
  estimated absolute RMS force accuracy = 0.0345458
  estimated relative force accuracy = 0.000104034
  3d grid and FFT values/proc = 9261 4096
  update every 1 steps, delay 10 steps, check yes
Step Temp E_pair E_mol TotEng Press
0    543.72066 6.2982658e+09    3416.5553 6.2982699e+09 2.3547981e+08
Loop time of 4.01221 on 1 procs for 2000 steps with 380 atoms

unfix pysimm_md
min_style cg
minimize 0.001 0.001 10000 100000
PPPM initialization ...
  G vector (1/distance) = 0.0926505
  grid = 16 16 16
  stencil order = 5
  estimated absolute RMS force accuracy = 0.0345458
  estimated relative force accuracy = 0.000104034
  3d grid and FFT values/proc = 9261 4096
Step Temp E_pair E_mol TotEng Press
2000    495.93851   -995.64558    2515.9811    2080.6106   0.25342374
Loop time of 0.108464 on 1 procs for 20 steps with 380 atoms

Minimization stats:
  Stopping criterion = energy tolerance
  Energy initial, next-to-last, final =
  Force two-norm initial, final = 840.812 59.7388
  Force max component initial, final = 121.516 11.4222
  Final line search alpha, max atom move = 0.00633284 0.0723347
  Iterations, force evaluations = 20 40

write_dump all custom pysimm.dump.tmp id q x y z vx vy vz
quit

################################################################################
##################################    Init    ##################################
################################################################################
units           real
atom_style      full
pair_style      lj/cut/coul/long 12.0  12.0
kspace_style    pppm 1e-4
bond_style      harmonic
angle_style     harmonic
dihedral_style  fourier
special_bonds   amber
pair_modify     mix arithmetic
read_data       temp.lmps
  orthogonal box = (-98.828 -98.828 -98.828) to (98.828 98.828 98.828)
  reading atoms ...
  399 atoms
  reading velocities ...
  399 velocities
  scanning bonds ...
  scanning angles ...
  scanning dihedrals ...
  reading bonds ...
  398 bonds
  reading angles ...
  752 angles
  reading dihedrals ...
  973 dihedrals
################################################################################

timestep        1
fix             pysimm_md all nve/limit 0.1
run             2000
PPPM initialization ...
  G vector (1/distance) = 0.0914811
  grid = 16 16 16
  stencil order = 5
  estimated absolute RMS force accuracy = 0.0355891
  estimated relative force accuracy = 0.000107176
  3d grid and FFT values/proc = 9261 4096
  update every 1 steps, delay 10 steps, check yes
Step Temp E_pair E_mol TotEng Press
0    472.39005     21178609    3490.6716     21182660    752334.65
Loop time of 4.20838 on 1 procs for 2000 steps with 399 atoms

unfix pysimm_md
min_style cg
minimize 0.001 0.001 10000 100000
PPPM initialization ...
  G vector (1/distance) = 0.0914811
  grid = 16 16 16
  stencil order = 5
  estimated absolute RMS force accuracy = 0.0355891
  estimated relative force accuracy = 0.000107176
  3d grid and FFT values/proc = 9261 4096
Step Temp E_pair E_mol TotEng Press
2000    493.48925   -1018.1144    2585.8485    2153.1912   0.63161921
Loop time of 0.109702 on 1 procs for 20 steps with 399 atoms

Minimization stats:
  Stopping criterion = energy tolerance
  Energy initial, next-to-last, final =
  Force two-norm initial, final = 844.627 59.6146
  Force max component initial, final = 151.224 15.8688
  Final line search alpha, max atom move = 0.00693208 0.110004
  Iterations, force evaluations = 20 40

write_dump all custom pysimm.dump.tmp id q x y z vx vy vz
quit

################################################################################
##################################    Init    ##################################
################################################################################
units           real
atom_style      full
pair_style      lj/cut/coul/long 12.0  12.0
kspace_style    pppm 1e-4
bond_style      harmonic
angle_style     harmonic
dihedral_style  fourier
special_bonds   amber
pair_modify     mix arithmetic
read_data       temp.lmps
  orthogonal box = (-100.448 -100.448 -100.448) to (100.448 100.448 100.448)
  reading atoms ...
  418 atoms
  reading velocities ...
  418 velocities
  scanning bonds ...
  scanning angles ...
  scanning dihedrals ...
  reading bonds ...
  417 bonds
  reading angles ...
  788 angles
  reading dihedrals ...
  1020 dihedrals
################################################################################

timestep        1
fix             pysimm_md all nve/limit 0.1
run             2000
PPPM initialization ...
  G vector (1/distance) = 0.0985435
  grid = 18 18 18
  stencil order = 5
  estimated absolute RMS force accuracy = 0.0293022
  estimated relative force accuracy = 8.82428e-05
  3d grid and FFT values/proc = 12167 5832
  update every 1 steps, delay 10 steps, check yes
Loop time of 5.09894 on 1 procs for 2000 steps with 418 atoms

unfix pysimm_md
min_style cg
minimize 0.001 0.001 10000 100000
PPPM initialization ...
  G vector (1/distance) = 0.0985435
  grid = 18 18 18
  stencil order = 5
  estimated absolute RMS force accuracy = 0.0293022
  estimated relative force accuracy = 8.82428e-05
  3d grid and FFT values/proc = 12167 5832
Loop time of 0.131661 on 1 procs for 19 steps with 418 atoms

Minimization stats:
  Stopping criterion = energy tolerance
  Energy initial, next-to-last, final =
  Force two-norm initial, final = 843.879 60.0393
  Force max component initial, final = 173.369 12.7653
  Final line search alpha, max atom move = 0.00405603 0.0517763
  Iterations, force evaluations = 19 38

write_dump all custom pysimm.dump.tmp id q x y z vx vy vz
quit

################################################################################
##################################    Init    ##################################
################################################################################
units           real
atom_style      full
pair_style      lj/cut/coul/long 12.0  12.0
kspace_style    pppm 1e-4
bond_style      harmonic
angle_style     harmonic
dihedral_style  fourier
special_bonds   amber
pair_modify     mix arithmetic
read_data       temp.lmps
  orthogonal box = (-102.018 -102.018 -102.018) to (102.018 102.018 102.018)
  reading atoms ...
  437 atoms
  reading velocities ...
  437 velocities
  scanning bonds ...
  scanning angles ...
  scanning dihedrals ...
  reading bonds ...
  436 bonds
  reading angles ...
  824 angles
  reading dihedrals ...
  1067 dihedrals
################################################################################

timestep        1
fix             pysimm_md all nve/limit 0.1
run             2000
PPPM initialization ...
  G vector (1/distance) = 0.0974467
  grid = 18 18 18
  stencil order = 5
  estimated absolute RMS force accuracy = 0.0301922
  estimated relative force accuracy = 9.09228e-05
  3d grid and FFT values/proc = 12167 5832
  update every 1 steps, delay 10 steps, check yes
Loop time of 5.58801 on 1 procs for 2000 steps with 437 atoms

unfix pysimm_md
min_style cg
minimize 0.001 0.001 10000 100000
PPPM initialization ...
  G vector (1/distance) = 0.0974467
  grid = 18 18 18
  stencil order = 5
  estimated absolute RMS force accuracy = 0.0301922
  estimated relative force accuracy = 9.09228e-05
  3d grid and FFT values/proc = 12167 5832
Loop time of 0.185795 on 1 procs for 26 steps with 437 atoms

Minimization stats:
  Stopping criterion = energy tolerance
  Energy initial, next-to-last, final =
  Force two-norm initial, final = 1026.29 71.9064
  Force max component initial, final = 165.588 15.6744
  Final line search alpha, max atom move = 0.00324832 0.0509154
  Iterations, force evaluations = 26 52

write_dump all custom pysimm.dump.tmp id q x y z vx vy vz
quit

################################################################################
##################################    Init    ##################################
################################################################################
units           real
atom_style      full
pair_style      lj/cut/coul/long 12.0  12.0
kspace_style    pppm 1e-4
bond_style      harmonic
angle_style     harmonic
dihedral_style  fourier
special_bonds   amber
pair_modify     mix arithmetic
read_data       temp.lmps
  orthogonal box = (-103.541 -103.541 -103.541) to (103.541 103.541 103.541)
  reading atoms ...
  456 atoms
  reading velocities ...
  456 velocities
  scanning bonds ...
  scanning angles ...
  scanning dihedrals ...
  reading bonds ...
  455 bonds
  reading angles ...
  860 angles
  reading dihedrals ...
  1114 dihedrals
################################################################################

timestep        1
fix             pysimm_md all nve/limit 0.1
run             2000
PPPM initialization ...
  G vector (1/distance) = 0.0964045
  grid = 18 18 18
  stencil order = 5
  estimated absolute RMS force accuracy = 0.0310539
  estimated relative force accuracy = 9.35179e-05
  3d grid and FFT values/proc = 12167 5832
  update every 1 steps, delay 10 steps, check yes
Loop time of 5.62891 on 1 procs for 2000 steps with 456 atoms

unfix pysimm_md
min_style cg
minimize 0.001 0.001 10000 100000
PPPM initialization ...
  G vector (1/distance) = 0.0964045
  grid = 18 18 18
  stencil order = 5
  estimated absolute RMS force accuracy = 0.0310539
  estimated relative force accuracy = 9.35179e-05
  3d grid and FFT values/proc = 12167 5832
Loop time of 0.144814 on 1 procs for 20 steps with 456 atoms

Minimization stats:
  Stopping criterion = energy tolerance
  Energy initial, next-to-last, final =
  Force two-norm initial, final = 932.922 63.6614
  Force max component initial, final = 122.157 12.8592
  Final line search alpha, max atom move = 0.00585566 0.0752993
  Iterations, force evaluations = 20 40

write_dump all custom pysimm.dump.tmp id q x y z vx vy vz
quit

################################################################################
##################################    Init    ##################################
################################################################################
units           real
atom_style      full
pair_style      lj/cut/coul/long 12.0  12.0
kspace_style    pppm 1e-4
bond_style      harmonic
angle_style     harmonic
dihedral_style  fourier
special_bonds   amber
pair_modify     mix arithmetic
read_data       temp.lmps
  orthogonal box = (-105.02 -105.02 -105.02) to (105.02 105.02 105.02)
  reading atoms ...
  475 atoms
  reading velocities ...
  475 velocities
  scanning bonds ...
  scanning angles ...
  scanning dihedrals ...
  reading bonds ...
  474 bonds
  reading angles ...
  896 angles
  reading dihedrals ...
  1161 dihedrals
################################################################################

timestep        1
fix             pysimm_md all nve/limit 0.1
run             2000
PPPM initialization ...
  G vector (1/distance) = 0.0954123
  grid = 18 18 18
  stencil order = 5
  estimated absolute RMS force accuracy = 0.031889
  estimated relative force accuracy = 9.60328e-05
  3d grid and FFT values/proc = 12167 5832
  update every 1 steps, delay 10 steps, check yes
Loop time of 5.70897 on 1 procs for 2000 steps with 475 atoms

unfix pysimm_md
min_style cg
minimize 0.001 0.001 10000 100000
PPPM initialization ...
  G vector (1/distance) = 0.0954123
  grid = 18 18 18
  stencil order = 5
  estimated absolute RMS force accuracy = 0.031889
  estimated relative force accuracy = 9.60328e-05
  3d grid and FFT values/proc = 12167 5832
Loop time of 0.128605 on 1 procs for 18 steps with 475 atoms

Minimization stats:
  Stopping criterion = energy tolerance
  Energy initial, next-to-last, final =
  Force two-norm initial, final = 942.539 81.3361
  Force max component initial, final = 124.941 18.7489
  Final line search alpha, max atom move = 0.00419746 0.0786978
  Iterations, force evaluations = 18 35

write_dump all custom pysimm.dump.tmp id q x y z vx vy vz
quit

################################################################################
##################################    Init    ##################################
################################################################################
units           real
atom_style      full
pair_style      lj/cut/coul/long 12.0  12.0
kspace_style    pppm 1e-4
bond_style      harmonic
angle_style     harmonic
dihedral_style  fourier
special_bonds   amber
pair_modify     mix arithmetic
read_data       temp.lmps
  orthogonal box = (-106.459 -106.459 -106.459) to (106.459 106.459 106.459)
  reading atoms ...
  494 atoms
  reading velocities ...
  494 velocities
  scanning bonds ...
  scanning angles ...
  scanning dihedrals ...
  reading bonds ...
  493 bonds
  reading angles ...
  932 angles
  reading dihedrals ...
  1208 dihedrals
################################################################################

timestep        1
fix             pysimm_md all nve/limit 0.1
run             2000
PPPM initialization ...
  G vector (1/distance) = 0.0944657
  grid = 18 18 18
  stencil order = 5
  estimated absolute RMS force accuracy = 0.0326989
  estimated relative force accuracy = 9.84717e-05
  3d grid and FFT values/proc = 12167 5832
  update every 1 steps, delay 10 steps, check yes
Loop time of 5.90998 on 1 procs for 2000 steps with 494 atoms

unfix pysimm_md
min_style cg
minimize 0.001 0.001 10000 100000
PPPM initialization ...
  G vector (1/distance) = 0.0944657
  grid = 18 18 18
  stencil order = 5
  estimated absolute RMS force accuracy = 0.0326989
  estimated relative force accuracy = 9.84717e-05
  3d grid and FFT values/proc = 12167 5832
Loop time of 0.166479 on 1 procs for 21 steps with 494 atoms

Minimization stats:
  Stopping criterion = energy tolerance
  Energy initial, next-to-last, final =
  Force two-norm initial, final = 971.073 69.6489
  Force max component initial, final = 150.032 11.2714
  Final line search alpha, max atom move = 0.00524193 0.0590839
  Iterations, force evaluations = 21 42

write_dump all custom pysimm.dump.tmp id q x y z vx vy vz
quit

################################################################################
##################################    Init    ##################################
################################################################################
units           real
atom_style      full
pair_style      lj/cut/coul/long 12.0  12.0
kspace_style    pppm 1e-4
bond_style      harmonic
angle_style     harmonic
dihedral_style  fourier
special_bonds   amber
pair_modify     mix arithmetic
read_data       temp.lmps
  orthogonal box = (-107.86 -107.86 -107.86) to (107.86 107.86 107.86)
  reading atoms ...
  513 atoms
  reading velocities ...
  513 velocities
  scanning bonds ...
  scanning angles ...
  scanning dihedrals ...
  reading bonds ...
  512 bonds
  reading angles ...
  968 angles
  reading dihedrals ...
  1255 dihedrals
################################################################################

timestep        1
fix             pysimm_md all nve/limit 0.1
run             2000
PPPM initialization ...
  G vector (1/distance) = 0.0935611
  grid = 18 18 18
  stencil order = 5
  estimated absolute RMS force accuracy = 0.0334848
  estimated relative force accuracy = 0.000100839
  3d grid and FFT values/proc = 12167 5832
  update every 1 steps, delay 10 steps, check yes
Loop time of 6.06272 on 1 procs for 2000 steps with 513 atoms

unfix pysimm_md
min_style cg
minimize 0.001 0.001 10000 100000
PPPM initialization ...
  G vector (1/distance) = 0.0935611
  grid = 18 18 18
  stencil order = 5
  estimated absolute RMS force accuracy = 0.0334848
  estimated relative force accuracy = 0.000100839
  3d grid and FFT values/proc = 12167 5832
Loop time of 0.16931 on 1 procs for 21 steps with 513 atoms

Minimization stats:
  Stopping criterion = energy tolerance
  Energy initial, next-to-last, final =
  Force two-norm initial, final = 861.392 64.5741
  Force max component initial, final = 134.587 10.2066
  Final line search alpha, max atom move = 0.00448542 0.0457808
  Iterations, force evaluations = 21 42

write_dump all custom pysimm.dump.tmp id q x y z vx vy vz
quit
