################################################################################
##################################    Init    ##################################
################################################################################
units           real
atom_style      full
pair_style      lj/cut/coul/long 12.0  12.0
kspace_style    pppm 1e-4
bond_style      harmonic
angle_style     harmonic
dihedral_style  fourier
improper_style  cvff
special_bonds   amber
pair_modify     mix arithmetic
read_data       temp.lmps
  orthogonal box = (-103.268 -103.268 -103.268) to (103.268 103.268 103.268)
  reading atoms ...
  536 atoms
  reading velocities ...
  536 velocities
  scanning bonds ...
  scanning angles ...
  scanning dihedrals ...
  scanning impropers ...
  reading bonds ...
  585 bonds
  reading angles ...
  1028 angles
  reading dihedrals ...
  1540 dihedrals
  reading impropers ...
  160 impropers
################################################################################

min_style cg
minimize 1e-05 1e-05 10000 100000
PPPM initialization ...
  G vector (1/distance) = 0.084262
  grid = 15 15 15
  stencil order = 5
  estimated absolute RMS force accuracy = 0.0355843
  estimated relative force accuracy = 0.000107161
  3d grid and FFT values/proc = 1521 256
  update every 1 steps, delay 0 steps, check yes
Step Temp E_pair E_mol TotEng Press
0    1937.7682    207.57492    856.51448    4154.3131    16.416131
Loop time of 0.150378 on 16 procs for 5 steps with 536 atoms

Minimization stats:
  Stopping criterion = linesearch alpha is zero
  Energy initial, next-to-last, final =
  Force two-norm initial, final = 64.403 47.1356
  Force max component initial, final = 7.02276 7.43794
  Final line search alpha, max atom move = 4.66172e-12 3.46736e-11
  Iterations, force evaluations = 5 71

timestep        1
fix             pysimm_md all nvt temp 300 300 100
run             5000
PPPM initialization ...
  G vector (1/distance) = 0.084262
  grid = 15 15 15
  stencil order = 5
  estimated absolute RMS force accuracy = 0.0355843
  estimated relative force accuracy = 0.000107161
  3d grid and FFT values/proc = 1521 256
Step Temp E_pair E_mol TotEng Press
5    1937.7682     204.3586    852.20223    4146.7845    16.627037
Loop time of 3.95349 on 16 procs for 5000 steps with 536 atoms

unfix pysimm_md
write_dump all custom pysimm.dump.tmp id q x y z vx vy vz
quit

################################################################################
##################################    Init    ##################################
################################################################################
units           real
atom_style      full
pair_style      lj/cut/coul/long 12.0  12.0
kspace_style    pppm 1e-4
bond_style      harmonic
angle_style     harmonic
dihedral_style  fourier
improper_style  cvff
special_bonds   amber
pair_modify     mix arithmetic
read_data       temp.lmps
  orthogonal box = (-103.268 -103.268 -103.268) to (103.268 103.268 103.268)
  reading atoms ...
  530 atoms
  reading velocities ...
  530 velocities
  scanning bonds ...
  scanning angles ...
  scanning dihedrals ...
  scanning impropers ...
  reading bonds ...
  579 bonds
  reading angles ...
  1016 angles
  reading dihedrals ...
  1528 dihedrals
  reading impropers ...
  160 impropers
################################################################################

min_style cg
minimize 1e-05 1e-05 10000 100000
PPPM initialization ...
  G vector (1/distance) = 0.0885157
  grid = 16 16 16
  stencil order = 5
  estimated absolute RMS force accuracy = 0.0324912
  estimated relative force accuracy = 9.78463e-05
  3d grid and FFT values/proc = 1521 256
  update every 1 steps, delay 0 steps, check yes
Step Temp E_pair E_mol TotEng Press
0    1892.0391    215.73069    680.75038    3879.9402     16.29451
Loop time of 0.149532 on 16 procs for 27 steps with 530 atoms

Minimization stats:
  Stopping criterion = linesearch alpha is zero
  Energy initial, next-to-last, final =
  Force two-norm initial, final = 56.716 45.0345
  Force max component initial, final = 6.10254 5.35661
  Final line search alpha, max atom move = 4.88076e-12 2.61443e-11
  Iterations, force evaluations = 27 111

timestep        1
fix             pysimm_md all nvt temp 300 300 100
run             5000
PPPM initialization ...
  G vector (1/distance) = 0.0885157
  grid = 16 16 16
  stencil order = 5
  estimated absolute RMS force accuracy = 0.0324912
  estimated relative force accuracy = 9.78463e-05
  3d grid and FFT values/proc = 1521 256
Step Temp E_pair E_mol TotEng Press
27    1892.0391    207.49692    656.63651    3847.5925    15.448419
Loop time of 3.25715 on 16 procs for 5000 steps with 530 atoms

unfix pysimm_md
write_dump all custom pysimm.dump.tmp id q x y z vx vy vz
quit

################################################################################
##################################    Init    ##################################
################################################################################
units           real
atom_style      full
pair_style      lj/cut/coul/long 12.0  12.0
kspace_style    pppm 1e-4
bond_style      harmonic
angle_style     harmonic
dihedral_style  fourier
improper_style  cvff
special_bonds   amber
pair_modify     mix arithmetic
read_data       temp.lmps
  orthogonal box = (-106.602 -106.602 -106.602) to (106.602 106.602 106.602)
  reading atoms ...
  580 atoms
  reading velocities ...
  580 velocities
  scanning bonds ...
  scanning angles ...
  scanning dihedrals ...
  scanning impropers ...
  reading bonds ...
  634 bonds
  reading angles ...
  1112 angles
  reading dihedrals ...
  1676 dihedrals
  reading impropers ...
  176 impropers
################################################################################

min_style cg
minimize 1e-05 1e-05 10000 100000
PPPM initialization ...
  G vector (1/distance) = 0.0864054
  grid = 16 16 16
  stencil order = 5
  estimated absolute RMS force accuracy = 0.0344937
  estimated relative force accuracy = 0.000103877
  3d grid and FFT values/proc = 1521 256
  update every 1 steps, delay 0 steps, check yes
Step Temp E_pair E_mol TotEng Press
0    1344.4604    250.05344    806.02679    3376.4697    11.228407
Loop time of 0.120655 on 16 procs for 15 steps with 580 atoms

Minimization stats:
  Stopping criterion = linesearch alpha is zero
  Energy initial, next-to-last, final =
  Force two-norm initial, final = 76.8512 47.7992
  Force max component initial, final = 10.0243 5.56478
  Final line search alpha, max atom move = 4.65276e-12 2.58916e-11
  Iterations, force evaluations = 15 89

timestep        1
fix             pysimm_md all nvt temp 300 300 100
run             5000
PPPM initialization ...
  G vector (1/distance) = 0.0864054
  grid = 16 16 16
  stencil order = 5
  estimated absolute RMS force accuracy = 0.0344937
  estimated relative force accuracy = 0.000103877
  3d grid and FFT values/proc = 1521 256
Step Temp E_pair E_mol TotEng Press
15    1344.4604    244.71114    787.76462    3352.8652    11.570102
Loop time of 3.24319 on 16 procs for 5000 steps with 580 atoms

unfix pysimm_md
write_dump all custom pysimm.dump.tmp id q x y z vx vy vz
quit

################################################################################
##################################    Init    ##################################
################################################################################
units           real
atom_style      full
pair_style      lj/cut/coul/long 12.0  12.0
kspace_style    pppm 1e-4
bond_style      harmonic
angle_style     harmonic
dihedral_style  fourier
improper_style  cvff
special_bonds   amber
pair_modify     mix arithmetic
read_data       temp.lmps
  orthogonal box = (-109.739 -109.739 -109.739) to (109.739 109.739 109.739)
  reading atoms ...
  636 atoms
  reading velocities ...
  636 velocities
  scanning bonds ...
  scanning angles ...
  scanning dihedrals ...
  scanning impropers ...
  reading bonds ...
  695 bonds
  reading angles ...
  1220 angles
  reading dihedrals ...
  1836 dihedrals
  reading impropers ...
  192 impropers
################################################################################

min_style cg
minimize 1e-05 1e-05 10000 100000
PPPM initialization ...
  G vector (1/distance) = 0.0845065
  grid = 16 16 16
  stencil order = 5
  estimated absolute RMS force accuracy = 0.0359012
  estimated relative force accuracy = 0.000108115
  3d grid and FFT values/proc = 1521 256
  update every 1 steps, delay 0 steps, check yes
Step Temp E_pair E_mol TotEng Press
0    2240.1089    249.42855    1072.1122    5561.6512    18.556579
Loop time of 0.148694 on 16 procs for 1 steps with 636 atoms

Minimization stats:
  Stopping criterion = linesearch alpha is zero
  Energy initial, next-to-last, final =
  Force two-norm initial, final = 67.438 67.438
  Force max component initial, final = 6.64709 6.64709
  Final line search alpha, max atom move = 1.75137e-12 1.16415e-11
  Iterations, force evaluations = 1 66

timestep        1
fix             pysimm_md all nvt temp 300 300 100
run             5000
PPPM initialization ...
  G vector (1/distance) = 0.0845065
  grid = 16 16 16
  stencil order = 5
  estimated absolute RMS force accuracy = 0.0359012
  estimated relative force accuracy = 0.000108115
  3d grid and FFT values/proc = 1521 256
Step Temp E_pair E_mol TotEng Press
1    2240.1089    249.42855    1072.1122    5561.6512    18.556579
Loop time of 4.39153 on 16 procs for 5000 steps with 636 atoms

unfix pysimm_md
write_dump all custom pysimm.dump.tmp id q x y z vx vy vz
quit

################################################################################
##################################    Init    ##################################
################################################################################
units           real
atom_style      full
pair_style      lj/cut/coul/long 12.0  12.0
kspace_style    pppm 1e-4
bond_style      harmonic
angle_style     harmonic
dihedral_style  fourier
improper_style  cvff
special_bonds   amber
pair_modify     mix arithmetic
read_data       temp.lmps
  orthogonal box = (-114.659 -114.659 -114.659) to (114.659 114.659 114.659)
  reading atoms ...
  686 atoms
  reading velocities ...
  686 velocities
  scanning bonds ...
  scanning angles ...
  scanning dihedrals ...
  scanning impropers ...
  reading bonds ...
  750 bonds
  reading angles ...
  1316 angles
  reading dihedrals ...
  1984 dihedrals
  reading impropers ...
  208 impropers
################################################################################

min_style cg
minimize 1e-05 1e-05 10000 100000
PPPM initialization ...
  G vector (1/distance) = 0.0893959
  grid = 18 18 18
  stencil order = 5
  estimated absolute RMS force accuracy = 0.0311323
  estimated relative force accuracy = 9.37539e-05
  3d grid and FFT values/proc = 1960 648
  update every 1 steps, delay 0 steps, check yes
Step Temp E_pair E_mol TotEng Press
0    2169.1385     320.7738    964.44813     5714.288    16.900237
Loop time of 0.148344 on 16 procs for 9 steps with 686 atoms

Minimization stats:
  Stopping criterion = linesearch alpha is zero
  Energy initial, next-to-last, final =
  Force two-norm initial, final = 66.6995 54.1142
  Force max component initial, final = 7.29848 6.86014
  Final line search alpha, max atom move = 3.9183e-12 2.68801e-11
  Iterations, force evaluations = 9 77

timestep        1
fix             pysimm_md all nvt temp 300 300 100
run             5000
PPPM initialization ...
  G vector (1/distance) = 0.0893959
  grid = 18 18 18
  stencil order = 5
  estimated absolute RMS force accuracy = 0.0311323
  estimated relative force accuracy = 9.37539e-05
  3d grid and FFT values/proc = 1960 648
Step Temp E_pair E_mol TotEng Press
9    2169.1385    322.86434    952.66974    5704.6001    17.170037
Loop time of 3.90887 on 16 procs for 5000 steps with 686 atoms

unfix pysimm_md
write_dump all custom pysimm.dump.tmp id q x y z vx vy vz
quit

################################################################################
##################################    Init    ##################################
################################################################################
units           real
atom_style      full
pair_style      lj/cut/coul/long 12.0  12.0
kspace_style    pppm 1e-4
bond_style      harmonic
angle_style     harmonic
dihedral_style  fourier
improper_style  cvff
special_bonds   amber
pair_modify     mix arithmetic
read_data       temp.lmps
  orthogonal box = (-115.525 -115.525 -115.525) to (115.525 115.525 115.525)
  reading atoms ...
  742 atoms
  reading velocities ...
  742 velocities
  scanning bonds ...
  scanning angles ...
  scanning dihedrals ...
  scanning impropers ...
  reading bonds ...
  811 bonds
  reading angles ...
  1424 angles
  reading dihedrals ...
  2144 dihedrals
  reading impropers ...
  224 impropers
################################################################################

min_style cg
minimize 1e-05 1e-05 10000 100000
PPPM initialization ...
  G vector (1/distance) = 0.0888926
  grid = 18 18 18
  stencil order = 5
  estimated absolute RMS force accuracy = 0.0321804
  estimated relative force accuracy = 9.69104e-05
  3d grid and FFT values/proc = 1960 648
  update every 1 steps, delay 0 steps, check yes
Step Temp E_pair E_mol TotEng Press
0    5134.6786    326.62334     1110.435    12778.435    40.271316
Loop time of 0.116864 on 16 procs for 2 steps with 742 atoms

Minimization stats:
  Stopping criterion = linesearch alpha is zero
  Energy initial, next-to-last, final =
  Force two-norm initial, final = 76.0507 40.3715
  Force max component initial, final = 10.9575 6.97737
  Final line search alpha, max atom move = 5.04757e-12 3.52188e-11
  Iterations, force evaluations = 2 66

timestep        1
fix             pysimm_md all nvt temp 300 300 100
run             5000
PPPM initialization ...
  G vector (1/distance) = 0.0888926
  grid = 18 18 18
  stencil order = 5
  estimated absolute RMS force accuracy = 0.0321804
  estimated relative force accuracy = 9.69104e-05
  3d grid and FFT values/proc = 1960 648
Step Temp E_pair E_mol TotEng Press
2    5134.6786    326.60004    1109.1951    12777.172    40.294957
Loop time of 4.52143 on 16 procs for 5000 steps with 742 atoms

unfix pysimm_md
write_dump all custom pysimm.dump.tmp id q x y z vx vy vz
quit

################################################################################
##################################    Init    ##################################
################################################################################
units           real
atom_style      full
pair_style      lj/cut/coul/long 12.0  12.0
kspace_style    pppm 1e-4
bond_style      harmonic
angle_style     harmonic
dihedral_style  fourier
improper_style  cvff
special_bonds   amber
pair_modify     mix arithmetic
read_data       temp.lmps
  orthogonal box = (-120.261 -120.261 -120.261) to (120.261 120.261 120.261)
  reading atoms ...
  810 atoms
  reading velocities ...
  810 velocities
  scanning bonds ...
  scanning angles ...
  scanning dihedrals ...
  scanning impropers ...
  reading bonds ...
  884 bonds
  reading angles ...
  1556 angles
  reading dihedrals ...
  2328 dihedrals
  reading impropers ...
  240 impropers
################################################################################

min_style cg
minimize 1e-05 1e-05 10000 100000
PPPM initialization ...
  G vector (1/distance) = 0.0862218
  grid = 18 18 18
  stencil order = 5
  estimated absolute RMS force accuracy = 0.0327245
  estimated relative force accuracy = 9.85487e-05
  3d grid and FFT values/proc = 1960 648
  update every 1 steps, delay 0 steps, check yes
Step Temp E_pair E_mol TotEng Press
0    1701.3655    864.27235    2676.7521    7643.8254    12.850876
Loop time of 0.315264 on 16 procs for 46 steps with 810 atoms

Minimization stats:
  Stopping criterion = energy tolerance
  Energy initial, next-to-last, final =
  Force two-norm initial, final = 149.241 130.557
  Force max component initial, final = 61.2759 39.184
  Final line search alpha, max atom move = 8.30798e-05 0.00325539
  Iterations, force evaluations = 46 98

timestep        1
fix             pysimm_md all nvt temp 300 300 100
run             5000
PPPM initialization ...
  G vector (1/distance) = 0.0862218
  grid = 18 18 18
  stencil order = 5
  estimated absolute RMS force accuracy = 0.0327245
  estimated relative force accuracy = 9.85487e-05
  3d grid and FFT values/proc = 1960 648
Step Temp E_pair E_mol TotEng Press
46    1701.3655     868.8428    2488.0246    7459.6684    12.213747
Loop time of 5.76325 on 16 procs for 5000 steps with 810 atoms

unfix pysimm_md
write_dump all custom pysimm.dump.tmp id q x y z vx vy vz
quit

################################################################################
##################################    Init    ##################################
################################################################################
units           real
atom_style      full
pair_style      lj/cut/coul/long 12.0  12.0
kspace_style    pppm 1e-4
bond_style      harmonic
angle_style     harmonic
dihedral_style  fourier
improper_style  cvff
special_bonds   amber
pair_modify     mix arithmetic
read_data       temp.lmps
  orthogonal box = (-120.783 -120.783 -120.783) to (120.783 120.783 120.783)
  reading atoms ...
  824 atoms
  reading velocities ...
  824 velocities
  scanning bonds ...
  scanning angles ...
  scanning dihedrals ...
  scanning impropers ...
  reading bonds ...
  903 bonds
  reading angles ...
  1580 angles
  reading dihedrals ...
  2404 dihedrals
  reading impropers ...
  256 impropers
################################################################################

min_style cg
minimize 1e-05 1e-05 10000 100000
PPPM initialization ...
  G vector (1/distance) = 0.0859369
  grid = 18 18 18
  stencil order = 5
  estimated absolute RMS force accuracy = 0.0359672
  estimated relative force accuracy = 0.000108314
  3d grid and FFT values/proc = 1960 648
  update every 1 steps, delay 0 steps, check yes
Step Temp E_pair E_mol TotEng Press
0    1392.7533     401.0565    1076.1996    4893.9678    10.533463
Loop time of 0.215524 on 16 procs for 19 steps with 824 atoms

Minimization stats:
  Stopping criterion = linesearch alpha is zero
  Energy initial, next-to-last, final =
  Force two-norm initial, final = 76.8799 46.298
  Force max component initial, final = 10.1626 5.68655
  Final line search alpha, max atom move = 4.07699e-12 2.3184e-11
  Iterations, force evaluations = 19 97

timestep        1
fix             pysimm_md all nvt temp 300 300 100
run             5000
PPPM initialization ...
  G vector (1/distance) = 0.0859369
  grid = 18 18 18
  stencil order = 5
  estimated absolute RMS force accuracy = 0.0359672
  estimated relative force accuracy = 0.000108314
  3d grid and FFT values/proc = 1960 648
Step Temp E_pair E_mol TotEng Press
19    1392.7533    391.23765    1051.4096    4859.3589    10.951471
Loop time of 4.87583 on 16 procs for 5000 steps with 824 atoms

unfix pysimm_md
write_dump all custom pysimm.dump.tmp id q x y z vx vy vz
quit

################################################################################
##################################    Init    ##################################
################################################################################
units           real
atom_style      full
pair_style      lj/cut/coul/long 12.0  12.0
kspace_style    pppm 1e-4
bond_style      harmonic
angle_style     harmonic
dihedral_style  fourier
improper_style  cvff
special_bonds   amber
pair_modify     mix arithmetic
read_data       temp.lmps
  orthogonal box = (-125.384 -125.384 -125.384) to (125.384 125.384 125.384)
  reading atoms ...
  886 atoms
  reading velocities ...
  886 velocities
  scanning bonds ...
  scanning angles ...
  scanning dihedrals ...
  scanning impropers ...
  reading bonds ...
  970 bonds
  reading angles ...
  1700 angles
  reading dihedrals ...
  2576 dihedrals
  reading impropers ...
  272 impropers
################################################################################

min_style cg
minimize 1e-05 1e-05 10000 100000
PPPM initialization ...
  G vector (1/distance) = 0.0904751
  grid = 20 20 20
  stencil order = 5
  estimated absolute RMS force accuracy = 0.0307709
  estimated relative force accuracy = 9.26656e-05
  3d grid and FFT values/proc = 2250 800
  update every 1 steps, delay 0 steps, check yes
Step Temp E_pair E_mol TotEng Press
0    1555.5985    412.65141    1188.7293    5705.0758    12.215883
Loop time of 0.307416 on 16 procs for 20 steps with 886 atoms

Minimization stats:
  Stopping criterion = linesearch alpha is zero
  Energy initial, next-to-last, final =
  Force two-norm initial, final = 66.4383 48.6368
  Force max component initial, final = 6.60607 5.77619
  Final line search alpha, max atom move = 2.83806e-12 1.63932e-11
  Iterations, force evaluations = 20 99

timestep        1
fix             pysimm_md all nvt temp 300 300 100
run             5000
PPPM initialization ...
  G vector (1/distance) = 0.0904751
  grid = 20 20 20
  stencil order = 5
  estimated absolute RMS force accuracy = 0.0307709
  estimated relative force accuracy = 9.26656e-05
  3d grid and FFT values/proc = 2250 800
Step Temp E_pair E_mol TotEng Press
20    1555.5985    405.67479    1165.0058    5674.3757    12.218451
Loop time of 6.59678 on 16 procs for 5000 steps with 886 atoms

unfix pysimm_md
write_dump all custom pysimm.dump.tmp id q x y z vx vy vz
quit

################################################################################
##################################    Init    ##################################
################################################################################
units           real
atom_style      full
pair_style      lj/cut/coul/long 12.0  12.0
kspace_style    pppm 1e-4
bond_style      harmonic
angle_style     harmonic
dihedral_style  fourier
improper_style  cvff
special_bonds   amber
pair_modify     mix arithmetic
read_data       temp.lmps
  orthogonal box = (-127.796 -127.796 -127.796) to (127.796 127.796 127.796)
  reading atoms ...
  990 atoms
  reading velocities ...
  990 velocities
  scanning bonds ...
  scanning angles ...
  scanning dihedrals ...
  scanning impropers ...
  reading bonds ...
  1079 bonds
  reading angles ...
  1904 angles
  reading dihedrals ...
  2832 dihedrals
  reading impropers ...
  288 impropers
################################################################################

min_style cg
minimize 1e-05 1e-05 10000 100000
PPPM initialization ...
  G vector (1/distance) = 0.0822798
  grid = 18 18 18
  stencil order = 5
  estimated absolute RMS force accuracy = 0.0351311
  estimated relative force accuracy = 0.000105796
  3d grid and FFT values/proc = 1960 648
  update every 1 steps, delay 0 steps, check yes
Step Temp E_pair E_mol TotEng Press
0    1400.3222    351.84882    1323.3731    5803.4013    10.180044
Loop time of 0.296948 on 16 procs for 13 steps with 990 atoms

Minimization stats:
  Stopping criterion = linesearch alpha is zero
  Energy initial, next-to-last, final =
  Force two-norm initial, final = 84.705 53.7946
  Force max component initial, final = 11.6099 5.29418
  Final line search alpha, max atom move = 2.57466e-12 1.36307e-11
  Iterations, force evaluations = 13 87

timestep        1
fix             pysimm_md all nvt temp 300 300 100
run             5000
PPPM initialization ...
  G vector (1/distance) = 0.0822798
  grid = 18 18 18
  stencil order = 5
  estimated absolute RMS force accuracy = 0.0351311
  estimated relative force accuracy = 0.000105796
  3d grid and FFT values/proc = 1960 648
Step Temp E_pair E_mol TotEng Press
13    1400.3222    353.50736    1299.9448    5781.6314    10.671169
Loop time of 5.02848 on 16 procs for 5000 steps with 990 atoms

unfix pysimm_md
write_dump all custom pysimm.dump.tmp id q x y z vx vy vz
quit

################################################################################
##################################    Init    ##################################
################################################################################
units           real
atom_style      full
pair_style      lj/cut/coul/long 12.0  12.0
kspace_style    pppm 1e-4
bond_style      harmonic
angle_style     harmonic
dihedral_style  fourier
improper_style  cvff
special_bonds   amber
pair_modify     mix arithmetic
read_data       temp.lmps
  orthogonal box = (-130.12 -130.12 -130.12) to (130.12 130.12 130.12)
  reading atoms ...
  986 atoms
  reading velocities ...
  986 velocities
  scanning bonds ...
  scanning angles ...
  scanning dihedrals ...
  scanning impropers ...
  reading bonds ...
  1080 bonds
  reading angles ...
  1892 angles
  reading dihedrals ...
  2872 dihedrals
  reading impropers ...
  304 impropers
################################################################################

min_style cg
minimize 1e-05 1e-05 10000 100000
PPPM initialization ...
  G vector (1/distance) = 0.0879821
  grid = 20 20 20
  stencil order = 5
  estimated absolute RMS force accuracy = 0.0329823
  estimated relative force accuracy = 9.93253e-05
  3d grid and FFT values/proc = 2250 800
  update every 1 steps, delay 0 steps, check yes
Step Temp E_pair E_mol TotEng Press
0    1860.5811    452.73054    1426.1278    7341.7066    13.710353
Loop time of 0.300817 on 16 procs for 14 steps with 986 atoms

Minimization stats:
  Stopping criterion = linesearch alpha is zero
  Energy initial, next-to-last, final =
  Force two-norm initial, final = 100.066 61.5021
  Force max component initial, final = 14.1381 6.41194
  Final line search alpha, max atom move = 2.26814e-12 1.45432e-11
  Iterations, force evaluations = 14 89

timestep        1
fix             pysimm_md all nvt temp 300 300 100
run             5000
PPPM initialization ...
  G vector (1/distance) = 0.0879821
  grid = 20 20 20
  stencil order = 5
  estimated absolute RMS force accuracy = 0.0329823
  estimated relative force accuracy = 9.93253e-05
  3d grid and FFT values/proc = 2250 800
Step Temp E_pair E_mol TotEng Press
14    1860.5811     448.1065    1385.0183     7295.973    14.897106
Loop time of 5.98007 on 16 procs for 5000 steps with 986 atoms

unfix pysimm_md
write_dump all custom pysimm.dump.tmp id q x y z vx vy vz
quit

################################################################################
##################################    Init    ##################################
################################################################################
units           real
atom_style      full
pair_style      lj/cut/coul/long 12.0  12.0
kspace_style    pppm 1e-4
bond_style      harmonic
angle_style     harmonic
dihedral_style  fourier
improper_style  cvff
special_bonds   amber
pair_modify     mix arithmetic
read_data       temp.lmps
  orthogonal box = (-132.364 -132.364 -132.364) to (132.364 132.364 132.364)
  reading atoms ...
  1066 atoms
  reading velocities ...
  1066 velocities
  scanning bonds ...
  scanning angles ...
  scanning dihedrals ...
  scanning impropers ...
  reading bonds ...
  1165 bonds
  reading angles ...
  2048 angles
  reading dihedrals ...
  3080 dihedrals
  reading impropers ...
  320 impropers
################################################################################

min_style cg
minimize 1e-05 1e-05 10000 100000
PPPM initialization ...
  G vector (1/distance) = 0.0868488
  grid = 20 20 20
  stencil order = 5
  estimated absolute RMS force accuracy = 0.0327845
  estimated relative force accuracy = 9.87296e-05
  3d grid and FFT values/proc = 2250 800
  update every 1 steps, delay 0 steps, check yes
Step Temp E_pair E_mol TotEng Press
0    1379.5208    450.28164    1353.1579     6182.815    10.174056
Loop time of 0.184084 on 16 procs for 13 steps with 1066 atoms

Minimization stats:
  Stopping criterion = linesearch alpha is zero
  Energy initial, next-to-last, final =
  Force two-norm initial, final = 76.7568 48.7316
  Force max component initial, final = 8.38076 6.47099
  Final line search alpha, max atom move = 2.63358e-12 1.70419e-11
  Iterations, force evaluations = 13 87

timestep        1
fix             pysimm_md all nvt temp 300 300 100
run             5000
PPPM initialization ...
  G vector (1/distance) = 0.0868488
  grid = 20 20 20
  stencil order = 5
  estimated absolute RMS force accuracy = 0.0327845
  estimated relative force accuracy = 9.87296e-05
  3d grid and FFT values/proc = 2250 800
Step Temp E_pair E_mol TotEng Press
13    1379.5208    450.69828    1336.9791    6167.0528    10.403535
Loop time of 5.33265 on 16 procs for 5000 steps with 1066 atoms

unfix pysimm_md
write_dump all custom pysimm.dump.tmp id q x y z vx vy vz
quit

################################################################################
##################################    Init    ##################################
################################################################################
units           real
atom_style      full
pair_style      lj/cut/coul/long 12.0  12.0
kspace_style    pppm 1e-4
bond_style      harmonic
angle_style     harmonic
dihedral_style  fourier
improper_style  cvff
special_bonds   amber
pair_modify     mix arithmetic
read_data       temp.lmps
  orthogonal box = (-134.534 -134.534 -134.534) to (134.534 134.534 134.534)
  reading atoms ...
  1122 atoms
  reading velocities ...
  1122 velocities
  scanning bonds ...
  scanning angles ...
  scanning dihedrals ...
  scanning impropers ...
  reading bonds ...
  1226 bonds
  reading angles ...
  2156 angles
  reading dihedrals ...
  3240 dihedrals
  reading impropers ...
  336 impropers
################################################################################

min_style cg
minimize 1e-05 1e-05 10000 100000
PPPM initialization ...
  G vector (1/distance) = 0.0857768
  grid = 20 20 20
  stencil order = 5
  estimated absolute RMS force accuracy = 0.0335614
  estimated relative force accuracy = 0.000101069
  3d grid and FFT values/proc = 2250 800
  update every 1 steps, delay 0 steps, check yes
Step Temp E_pair E_mol TotEng Press
0    1161.2878    484.67583    1598.0125    5963.1178    8.6399114
Loop time of 0.519912 on 16 procs for 45 steps with 1122 atoms

Minimization stats:
  Stopping criterion = linesearch alpha is zero
  Energy initial, next-to-last, final =
  Force two-norm initial, final = 91.684 52.4419
  Force max component initial, final = 10.7284 6.61226
  Final line search alpha, max atom move = 2.71995e-12 1.7985e-11
  Iterations, force evaluations = 45 151

timestep        1
fix             pysimm_md all nvt temp 300 300 100
run             5000
PPPM initialization ...
  G vector (1/distance) = 0.0857768
  grid = 20 20 20
  stencil order = 5
  estimated absolute RMS force accuracy = 0.0335614
  estimated relative force accuracy = 0.000101069
  3d grid and FFT values/proc = 2250 800
Step Temp E_pair E_mol TotEng Press
45    1161.2878    470.53657    1485.3251    5836.2911    9.2818496
Loop time of 6.30568 on 16 procs for 5000 steps with 1122 atoms

unfix pysimm_md
write_dump all custom pysimm.dump.tmp id q x y z vx vy vz
quit

################################################################################
##################################    Init    ##################################
################################################################################
units           real
atom_style      full
pair_style      lj/cut/coul/long 12.0  12.0
kspace_style    pppm 1e-4
bond_style      harmonic
angle_style     harmonic
dihedral_style  fourier
improper_style  cvff
special_bonds   amber
pair_modify     mix arithmetic
read_data       temp.lmps
  orthogonal box = (-134.309 -134.309 -134.309) to (134.309 134.309 134.309)
  reading atoms ...
  1172 atoms
  reading velocities ...
  1172 velocities
  scanning bonds ...
  scanning angles ...
  scanning dihedrals ...
  scanning impropers ...
  reading bonds ...
  1281 bonds
  reading angles ...
  2252 angles
  reading dihedrals ...
  3388 dihedrals
  reading impropers ...
  352 impropers
################################################################################

min_style cg
minimize 1e-05 1e-05 10000 100000
PPPM initialization ...
  G vector (1/distance) = 0.0858854
  grid = 20 20 20
  stencil order = 5
  estimated absolute RMS force accuracy = 0.0344748
  estimated relative force accuracy = 0.00010382
  3d grid and FFT values/proc = 2250 800
  update every 1 steps, delay 0 steps, check yes
Step Temp E_pair E_mol TotEng Press
0    982.04912    1416.0748    4473.7724    9317.7177    5.7981887
Loop time of 0.476545 on 16 procs for 43 steps with 1172 atoms

Minimization stats:
  Stopping criterion = linesearch alpha is zero
  Energy initial, next-to-last, final =
  Force two-norm initial, final = 253.596 92.3041
  Force max component initial, final = 65.9022 32.6459
  Final line search alpha, max atom move = 7.59978e-13 2.48102e-11
  Iterations, force evaluations = 43 147

timestep        1
fix             pysimm_md all nvt temp 300 300 100
run             5000
PPPM initialization ...
  G vector (1/distance) = 0.0858854
  grid = 20 20 20
  stencil order = 5
  estimated absolute RMS force accuracy = 0.0344748
  estimated relative force accuracy = 0.00010382
  3d grid and FFT values/proc = 2250 800
Step Temp E_pair E_mol TotEng Press
43    982.04912    1411.2487    4171.1533    9010.2725    7.1474399
Loop time of 5.84035 on 16 procs for 5000 steps with 1172 atoms

unfix pysimm_md
write_dump all custom pysimm.dump.tmp id q x y z vx vy vz
quit

################################################################################
##################################    Init    ##################################
################################################################################
units           real
atom_style      full
pair_style      lj/cut/coul/long 12.0  12.0
kspace_style    pppm 1e-4
bond_style      harmonic
angle_style     harmonic
dihedral_style  fourier
improper_style  cvff
special_bonds   amber
pair_modify     mix arithmetic
read_data       temp.lmps
  orthogonal box = (-136.314 -136.314 -136.314) to (136.314 136.314 136.314)
  reading atoms ...
  1210 atoms
  reading velocities ...
  1210 velocities
  scanning bonds ...
  scanning angles ...
  scanning dihedrals ...
  scanning impropers ...
  reading bonds ...
  1324 bonds
  reading angles ...
  2324 angles
  reading dihedrals ...
  3512 dihedrals
  reading impropers ...
  368 impropers
################################################################################

min_style cg
minimize 1e-05 1e-05 10000 100000
PPPM initialization ...
  G vector (1/distance) = 0.0849154
  grid = 20 20 20
  stencil order = 5
  estimated absolute RMS force accuracy = 0.0358894
  estimated relative force accuracy = 0.00010808
  3d grid and FFT values/proc = 2250 800
  update every 1 steps, delay 0 steps, check yes
Step Temp E_pair E_mol TotEng Press
0    1321.9633    544.21662    1552.6556    6860.9626    10.323666
Loop time of 0.211507 on 16 procs for 5 steps with 1210 atoms

Minimization stats:
  Stopping criterion = linesearch alpha is zero
  Energy initial, next-to-last, final =
  Force two-norm initial, final = 72.4988 60.836
  Force max component initial, final = 8.6362 6.73869
  Final line search alpha, max atom move = 3.09889e-12 2.08825e-11
  Iterations, force evaluations = 5 71

timestep        1
fix             pysimm_md all nvt temp 300 300 100
run             5000
PPPM initialization ...
  G vector (1/distance) = 0.0849154
  grid = 20 20 20
  stencil order = 5
  estimated absolute RMS force accuracy = 0.0358894
  estimated relative force accuracy = 0.00010808
  3d grid and FFT values/proc = 2250 800
Step Temp E_pair E_mol TotEng Press
5    1321.9633    544.36803    1545.9631    6854.4214    10.461203
Loop time of 6.47131 on 16 procs for 5000 steps with 1210 atoms

unfix pysimm_md
write_dump all custom pysimm.dump.tmp id q x y z vx vy vz
quit

################################################################################
##################################    Init    ##################################
################################################################################
units           real
atom_style      full
pair_style      lj/cut/coul/long 12.0  12.0
kspace_style    pppm 1e-4
bond_style      harmonic
angle_style     harmonic
dihedral_style  fourier
improper_style  cvff
special_bonds   amber
pair_modify     mix arithmetic
read_data       temp.lmps
  orthogonal box = (-140.658 -140.658 -140.658) to (140.658 140.658 140.658)
  reading atoms ...
  1296 atoms
  reading velocities ...
  1296 velocities
  scanning bonds ...
  scanning angles ...
  scanning dihedrals ...
  scanning impropers ...
  reading bonds ...
  1415 bonds
  reading angles ...
  2492 angles
  reading dihedrals ...
  3732 dihedrals
  reading impropers ...
  384 impropers
################################################################################

min_style cg
minimize 1e-05 1e-05 10000 100000
PPPM initialization ...
  G vector (1/distance) = 0.0828857
  grid = 20 20 20
  stencil order = 5
  estimated absolute RMS force accuracy = 0.0354951
  estimated relative force accuracy = 0.000106892
  3d grid and FFT values/proc = 2250 800
  update every 1 steps, delay 0 steps, check yes
Step Temp E_pair E_mol TotEng Press
0    1583.2917    556.59674    1762.4491    8430.7878    12.224833
Loop time of 0.268418 on 16 procs for 10 steps with 1296 atoms

Minimization stats:
  Stopping criterion = linesearch alpha is zero
  Energy initial, next-to-last, final =
  Force two-norm initial, final = 96.2065 66.1156
  Force max component initial, final = 13.2144 8.22826
  Final line search alpha, max atom move = 1.9363e-12 1.59324e-11
  Iterations, force evaluations = 10 81

timestep        1
fix             pysimm_md all nvt temp 300 300 100
run             5000
PPPM initialization ...
  G vector (1/distance) = 0.0828857
  grid = 20 20 20
  stencil order = 5
  estimated absolute RMS force accuracy = 0.0354951
  estimated relative force accuracy = 0.000106892
  3d grid and FFT values/proc = 2250 800
Step Temp E_pair E_mol TotEng Press
10    1583.2917    553.28626    1743.6351    8408.6634    12.243395
Loop time of 7.33351 on 16 procs for 5000 steps with 1296 atoms

unfix pysimm_md
write_dump all custom pysimm.dump.tmp id q x y z vx vy vz
quit

################################################################################
##################################    Init    ##################################
################################################################################
units           real
atom_style      full
pair_style      lj/cut/coul/long 12.0  12.0
kspace_style    pppm 1e-4
bond_style      harmonic
angle_style     harmonic
dihedral_style  fourier
improper_style  cvff
special_bonds   amber
pair_modify     mix arithmetic
read_data       temp.lmps
  orthogonal box = (-142.585 -142.585 -142.585) to (142.585 142.585 142.585)
  reading atoms ...
  1334 atoms
  reading velocities ...
  1334 velocities
  scanning bonds ...
  scanning angles ...
  scanning dihedrals ...
  scanning impropers ...
  reading bonds ...
  1458 bonds
  reading angles ...
  2564 angles
  reading dihedrals ...
  3856 dihedrals
  reading impropers ...
  400 impropers
################################################################################

min_style cg
minimize 1e-05 1e-05 10000 100000
PPPM initialization ...
  G vector (1/distance) = 0.0941542
  grid = 24 24 24
  stencil order = 5
  estimated absolute RMS force accuracy = 0.0270558
  estimated relative force accuracy = 8.14777e-05
  3d grid and FFT values/proc = 3179 1152
  update every 1 steps, delay 0 steps, check yes
Step Temp E_pair E_mol TotEng Press
0    650.28382    533.99911    1694.1247    4811.9744    5.0103978
Loop time of 0.376471 on 16 procs for 27 steps with 1334 atoms

Minimization stats:
  Stopping criterion = linesearch alpha is zero
  Energy initial, next-to-last, final =
  Force two-norm initial, final = 68.3757 48.3622
  Force max component initial, final = 9.30463 5.39853
  Final line search alpha, max atom move = 2.96054e-12 1.59826e-11
  Iterations, force evaluations = 27 113

timestep        1
fix             pysimm_md all nvt temp 300 300 100
run             5000
PPPM initialization ...
  G vector (1/distance) = 0.0941542
  grid = 24 24 24
  stencil order = 5
  estimated absolute RMS force accuracy = 0.0270558
  estimated relative force accuracy = 8.14777e-05
  3d grid and FFT values/proc = 3179 1152
Step Temp E_pair E_mol TotEng Press
27    650.28382    528.89851    1664.0751    4776.8242    5.0317476
Loop time of 7.46273 on 16 procs for 5000 steps with 1334 atoms

unfix pysimm_md
write_dump all custom pysimm.dump.tmp id q x y z vx vy vz
quit

################################################################################
##################################    Init    ##################################
################################################################################
units           real
atom_style      full
pair_style      lj/cut/coul/long 12.0  12.0
kspace_style    pppm 1e-4
bond_style      harmonic
angle_style     harmonic
dihedral_style  fourier
improper_style  cvff
special_bonds   amber
pair_modify     mix arithmetic
read_data       temp.lmps
  orthogonal box = (-142.001 -142.001 -142.001) to (142.001 142.001 142.001)
  reading atoms ...
  1372 atoms
  reading velocities ...
  1372 velocities
  scanning bonds ...
  scanning angles ...
  scanning dihedrals ...
  scanning impropers ...
  reading bonds ...
  1501 bonds
  reading angles ...
  2636 angles
  reading dihedrals ...
  3980 dihedrals
  reading impropers ...
  416 impropers
################################################################################

min_style cg
minimize 1e-05 1e-05 10000 100000
PPPM initialization ...
  G vector (1/distance) = 0.0944387
  grid = 24 24 24
  stencil order = 5
  estimated absolute RMS force accuracy = 0.0279528
  estimated relative force accuracy = 8.41791e-05
  3d grid and FFT values/proc = 3179 1152
  update every 1 steps, delay 0 steps, check yes
Step Temp E_pair E_mol TotEng Press
0    696.50507    599.71567    1761.7428    5207.8592    6.0676769
Loop time of 0.418457 on 16 procs for 28 steps with 1372 atoms

Minimization stats:
  Stopping criterion = linesearch alpha is zero
  Energy initial, next-to-last, final =
  Force two-norm initial, final = 87.7285 79.8445
  Force max component initial, final = 9.26761 10.4755
  Final line search alpha, max atom move = 1.55862e-12 1.63274e-11
  Iterations, force evaluations = 28 115

timestep        1
fix             pysimm_md all nvt temp 300 300 100
run             5000
PPPM initialization ...
  G vector (1/distance) = 0.0944387
  grid = 24 24 24
  stencil order = 5
  estimated absolute RMS force accuracy = 0.0279528
  estimated relative force accuracy = 8.41791e-05
  3d grid and FFT values/proc = 3179 1152
Step Temp E_pair E_mol TotEng Press
28    696.50507     580.5856    1695.8407     5122.827    5.0576223
Loop time of 8.79885 on 16 procs for 5000 steps with 1372 atoms

unfix pysimm_md
write_dump all custom pysimm.dump.tmp id q x y z vx vy vz
quit

################################################################################
##################################    Init    ##################################
################################################################################
units           real
atom_style      full
pair_style      lj/cut/coul/long 12.0  12.0
kspace_style    pppm 1e-4
bond_style      harmonic
angle_style     harmonic
dihedral_style  fourier
improper_style  cvff
special_bonds   amber
pair_modify     mix arithmetic
read_data       temp.lmps
  orthogonal box = (-146.29 -146.29 -146.29) to (146.29 146.29 146.29)
  reading atoms ...
  1440 atoms
  reading velocities ...
  1440 velocities
  scanning bonds ...
  scanning angles ...
  scanning dihedrals ...
  scanning impropers ...
  reading bonds ...
  1574 bonds
  reading angles ...
  2768 angles
  reading dihedrals ...
  4164 dihedrals
  reading impropers ...
  432 impropers
################################################################################

min_style cg
minimize 1e-05 1e-05 10000 100000
PPPM initialization ...
  G vector (1/distance) = 0.0923868
  grid = 24 24 24
  stencil order = 5
  estimated absolute RMS force accuracy = 0.0283899
  estimated relative force accuracy = 8.54953e-05
  3d grid and FFT values/proc = 3179 1152
  update every 1 steps, delay 0 steps, check yes
Step Temp E_pair E_mol TotEng Press
0    1036.7101    1147.9439    3358.2514    8953.0448    6.2611495
Loop time of 0.671067 on 16 procs for 74 steps with 1440 atoms

Minimization stats:
  Stopping criterion = linesearch alpha is zero
  Energy initial, next-to-last, final =
  Force two-norm initial, final = 172.975 51.0276
  Force max component initial, final = 50.3023 18.3247
  Final line search alpha, max atom move = 4.22548e-12 7.74306e-11
  Iterations, force evaluations = 74 209

timestep        1
fix             pysimm_md all nvt temp 300 300 100
run             5000
PPPM initialization ...
  G vector (1/distance) = 0.0923868
  grid = 24 24 24
  stencil order = 5
  estimated absolute RMS force accuracy = 0.0283899
  estimated relative force accuracy = 8.54953e-05
  3d grid and FFT values/proc = 3179 1152
Step Temp E_pair E_mol TotEng Press
74    1036.7101    1099.7737    3076.0239    8622.6471    7.4910471
Loop time of 7.54073 on 16 procs for 5000 steps with 1440 atoms

unfix pysimm_md
write_dump all custom pysimm.dump.tmp id q x y z vx vy vz
quit

################################################################################
##################################    Init    ##################################
################################################################################
units           real
atom_style      full
pair_style      lj/cut/coul/long 12.0  12.0
kspace_style    pppm 1e-4
bond_style      harmonic
angle_style     harmonic
dihedral_style  fourier
improper_style  cvff
special_bonds   amber
pair_modify     mix arithmetic
read_data       temp.lmps
  orthogonal box = (-145.552 -145.552 -145.552) to (145.552 145.552 145.552)
  reading atoms ...
  1466 atoms
  reading velocities ...
  1466 velocities
  scanning bonds ...
  scanning angles ...
  scanning dihedrals ...
  scanning impropers ...
  reading bonds ...
  1605 bonds
  reading angles ...
  2816 angles
  reading dihedrals ...
  4264 dihedrals
  reading impropers ...
  448 impropers
################################################################################

min_style cg
minimize 1e-05 1e-05 10000 100000
PPPM initialization ...
  G vector (1/distance) = 0.0927372
  grid = 24 24 24
  stencil order = 5
  estimated absolute RMS force accuracy = 0.0295697
  estimated relative force accuracy = 8.90482e-05
  3d grid and FFT values/proc = 3179 1152
  update every 1 steps, delay 0 steps, check yes
Step Temp E_pair E_mol TotEng Press
0    604.18284    607.31597    1952.1424    5197.8564    4.6012525
Loop time of 0.750251 on 16 procs for 64 steps with 1466 atoms

Minimization stats:
  Stopping criterion = linesearch alpha is zero
  Energy initial, next-to-last, final =
  Force two-norm initial, final = 102.686 54.0156
  Force max component initial, final = 9.9561 7.69606
  Final line search alpha, max atom move = 3.01779e-12 2.32251e-11
  Iterations, force evaluations = 64 187

timestep        1
fix             pysimm_md all nvt temp 300 300 100
run             5000
PPPM initialization ...
  G vector (1/distance) = 0.0927372
  grid = 24 24 24
  stencil order = 5
  estimated absolute RMS force accuracy = 0.0295697
  estimated relative force accuracy = 8.90482e-05
  3d grid and FFT values/proc = 3179 1152
Step Temp E_pair E_mol TotEng Press
64    604.18284    583.79529    1789.6307     5011.824    4.6321459
Loop time of 8.27941 on 16 procs for 5000 steps with 1466 atoms

unfix pysimm_md
write_dump all custom pysimm.dump.tmp id q x y z vx vy vz
quit

################################################################################
##################################    Init    ##################################
################################################################################
units           real
atom_style      full
pair_style      lj/cut/coul/long 12.0  12.0
kspace_style    pppm 1e-4
bond_style      harmonic
angle_style     harmonic
dihedral_style  fourier
improper_style  cvff
special_bonds   amber
pair_modify     mix arithmetic
read_data       temp.lmps
  orthogonal box = (-147.265 -147.265 -147.265) to (147.265 147.265 147.265)
  reading atoms ...
  1552 atoms
  reading velocities ...
  1552 velocities
  scanning bonds ...
  scanning angles ...
  scanning dihedrals ...
  scanning impropers ...
  reading bonds ...
  1696 bonds
  reading angles ...
  2984 angles
  reading dihedrals ...
  4484 dihedrals
  reading impropers ...
  464 impropers
################################################################################

min_style cg
minimize 1e-05 1e-05 10000 100000
PPPM initialization ...
  G vector (1/distance) = 0.0919325
  grid = 24 24 24
  stencil order = 5
  estimated absolute RMS force accuracy = 0.0293508
  estimated relative force accuracy = 8.83892e-05
  3d grid and FFT values/proc = 3179 1152
  update every 1 steps, delay 0 steps, check yes
Loop time of 0.498241 on 16 procs for 61 steps with 1552 atoms

Minimization stats:
  Stopping criterion = energy tolerance
  Energy initial, next-to-last, final =
  Force two-norm initial, final = 137.445 89.2452
  Force max component initial, final = 58.2255 34.0101
  Final line search alpha, max atom move = 0.000961087 0.0326867
  Iterations, force evaluations = 61 124

timestep        1
fix             pysimm_md all nvt temp 300 300 100
run             5000
PPPM initialization ...
  G vector (1/distance) = 0.0919325
  grid = 24 24 24
  stencil order = 5
  estimated absolute RMS force accuracy = 0.0293508
  estimated relative force accuracy = 8.83892e-05
  3d grid and FFT values/proc = 3179 1152
Loop time of 7.49185 on 16 procs for 5000 steps with 1552 atoms

unfix pysimm_md
write_dump all custom pysimm.dump.tmp id q x y z vx vy vz
quit

################################################################################
##################################    Init    ##################################
################################################################################
units           real
atom_style      full
pair_style      lj/cut/coul/long 12.0  12.0
kspace_style    pppm 1e-4
bond_style      harmonic
angle_style     harmonic
dihedral_style  fourier
improper_style  cvff
special_bonds   amber
pair_modify     mix arithmetic
read_data       temp.lmps
  orthogonal box = (-148.938 -148.938 -148.938) to (148.938 148.938 148.938)
  reading atoms ...
  1572 atoms
  reading velocities ...
  1572 velocities
  scanning bonds ...
  scanning angles ...
  scanning dihedrals ...
  scanning impropers ...
  reading bonds ...
  1721 bonds
  reading angles ...
  3020 angles
  reading dihedrals ...
  4572 dihedrals
  reading impropers ...
  480 impropers
################################################################################

min_style cg
minimize 1e-05 1e-05 10000 100000
PPPM initialization ...
  G vector (1/distance) = 0.0911644
  grid = 24 24 24
  stencil order = 5
  estimated absolute RMS force accuracy = 0.0307929
  estimated relative force accuracy = 9.27318e-05
  3d grid and FFT values/proc = 3179 1152
  update every 1 steps, delay 0 steps, check yes
Loop time of 0.660829 on 16 procs for 19 steps with 1572 atoms

Minimization stats:
  Stopping criterion = linesearch alpha is zero
  Energy initial, next-to-last, final =
  Force two-norm initial, final = 81.2512 52.2166
  Force max component initial, final = 8.43869 6.6596
  Final line search alpha, max atom move = 4.40877e-12 2.93606e-11
  Iterations, force evaluations = 19 149

timestep        1
fix             pysimm_md all nvt temp 300 300 100
run             5000
PPPM initialization ...
  G vector (1/distance) = 0.0911644
  grid = 24 24 24
  stencil order = 5
  estimated absolute RMS force accuracy = 0.0307929
  estimated relative force accuracy = 9.27318e-05
  3d grid and FFT values/proc = 3179 1152
Loop time of 10.2584 on 16 procs for 5000 steps with 1572 atoms

unfix pysimm_md
write_dump all custom pysimm.dump.tmp id q x y z vx vy vz
quit

################################################################################
##################################    Init    ##################################
################################################################################
units           real
atom_style      full
pair_style      lj/cut/coul/long 12.0  12.0
kspace_style    pppm 1e-4
bond_style      harmonic
angle_style     harmonic
dihedral_style  fourier
improper_style  cvff
special_bonds   amber
pair_modify     mix arithmetic
read_data       temp.lmps
  orthogonal box = (-153.184 -153.184 -153.184) to (153.184 153.184 153.184)
  reading atoms ...
  1664 atoms
  reading velocities ...
  1664 velocities
  scanning bonds ...
  scanning angles ...
  scanning dihedrals ...
  scanning impropers ...
  reading bonds ...
  1818 bonds
  reading angles ...
  3200 angles
  reading dihedrals ...
  4804 dihedrals
  reading impropers ...
  496 impropers
################################################################################

min_style cg
minimize 1e-05 1e-05 10000 100000
PPPM initialization ...
  G vector (1/distance) = 0.0892616
  grid = 24 24 24
  stencil order = 5
  estimated absolute RMS force accuracy = 0.0305475
  estimated relative force accuracy = 9.19928e-05
  3d grid and FFT values/proc = 3179 1152
  update every 1 steps, delay 0 steps, check yes
Loop time of 0.701164 on 16 procs for 26 steps with 1664 atoms

Minimization stats:
  Stopping criterion = linesearch alpha is zero
  Energy initial, next-to-last, final =
  Force two-norm initial, final = 99.784 85.8031
  Force max component initial, final = 11.2683 10.6475
  Final line search alpha, max atom move = 9.90434e-13 1.05457e-11
  Iterations, force evaluations = 26 113

timestep        1
fix             pysimm_md all nvt temp 300 300 100
run             5000
PPPM initialization ...
  G vector (1/distance) = 0.0892616
  grid = 24 24 24
  stencil order = 5
  estimated absolute RMS force accuracy = 0.0305475
  estimated relative force accuracy = 9.19928e-05
  3d grid and FFT values/proc = 3179 1152
Loop time of 13.1699 on 16 procs for 5000 steps with 1664 atoms

unfix pysimm_md
write_dump all custom pysimm.dump.tmp id q x y z vx vy vz
quit

################################################################################
##################################    Init    ##################################
################################################################################
units           real
atom_style      full
pair_style      lj/cut/coul/long 12.0  12.0
kspace_style    pppm 1e-4
bond_style      harmonic
angle_style     harmonic
dihedral_style  fourier
improper_style  cvff
special_bonds   amber
pair_modify     mix arithmetic
read_data       temp.lmps
  orthogonal box = (-152.177 -152.177 -152.177) to (152.177 152.177 152.177)
  reading atoms ...
  1678 atoms
  reading velocities ...
  1678 velocities
  scanning bonds ...
  scanning angles ...
  scanning dihedrals ...
  scanning impropers ...
  reading bonds ...
  1837 bonds
  reading angles ...
  3224 angles
  reading dihedrals ...
  4880 dihedrals
  reading impropers ...
  512 impropers
################################################################################

min_style cg
minimize 1e-05 1e-05 10000 100000
PPPM initialization ...
  G vector (1/distance) = 0.089707
  grid = 24 24 24
  stencil order = 5
  estimated absolute RMS force accuracy = 0.0319529
  estimated relative force accuracy = 9.62251e-05
  3d grid and FFT values/proc = 3179 1152
  update every 1 steps, delay 0 steps, check yes
Loop time of 0.667765 on 16 procs for 60 steps with 1678 atoms

Minimization stats:
  Stopping criterion = linesearch alpha is zero
  Energy initial, next-to-last, final =
  Force two-norm initial, final = 115.103 67.0909
  Force max component initial, final = 12.2613 8.30193
  Final line search alpha, max atom move = 1.64623e-12 1.36669e-11
  Iterations, force evaluations = 60 179

timestep        1
fix             pysimm_md all nvt temp 300 300 100
run             5000
PPPM initialization ...
  G vector (1/distance) = 0.089707
  grid = 24 24 24
  stencil order = 5
  estimated absolute RMS force accuracy = 0.0319529
  estimated relative force accuracy = 9.62251e-05
  3d grid and FFT values/proc = 3179 1152
Loop time of 7.09541 on 16 procs for 5000 steps with 1678 atoms

unfix pysimm_md
write_dump all custom pysimm.dump.tmp id q x y z vx vy vz
quit

################################################################################
##################################    Init    ##################################
################################################################################
units           real
atom_style      full
pair_style      lj/cut/coul/long 12.0  12.0
kspace_style    pppm 1e-4
bond_style      harmonic
angle_style     harmonic
dihedral_style  fourier
improper_style  cvff
special_bonds   amber
pair_modify     mix arithmetic
read_data       temp.lmps
  orthogonal box = (-153.746 -153.746 -153.746) to (153.746 153.746 153.746)
  reading atoms ...
  1734 atoms
  reading velocities ...
  1734 velocities
  scanning bonds ...
  scanning angles ...
  scanning dihedrals ...
  scanning impropers ...
  reading bonds ...
  1898 bonds
  reading angles ...
  3332 angles
  reading dihedrals ...
  5040 dihedrals
  reading impropers ...
  528 impropers
################################################################################

min_style cg
minimize 1e-05 1e-05 10000 100000
PPPM initialization ...
  G vector (1/distance) = 0.0890171
  grid = 24 24 24
  stencil order = 5
  estimated absolute RMS force accuracy = 0.0324384
  estimated relative force accuracy = 9.76871e-05
  3d grid and FFT values/proc = 3179 1152
  update every 1 steps, delay 0 steps, check yes
Loop time of 0.767896 on 16 procs for 45 steps with 1734 atoms

Minimization stats:
  Stopping criterion = linesearch alpha is zero
  Energy initial, next-to-last, final =
  Force two-norm initial, final = 93.2649 74.2437
  Force max component initial, final = 11.4631 8.6776
  Final line search alpha, max atom move = 1.21787e-12 1.05682e-11
  Iterations, force evaluations = 45 159

timestep        1
fix             pysimm_md all nvt temp 300 300 100
run             5000
PPPM initialization ...
  G vector (1/distance) = 0.0890171
  grid = 24 24 24
  stencil order = 5
  estimated absolute RMS force accuracy = 0.0324384
  estimated relative force accuracy = 9.76871e-05
  3d grid and FFT values/proc = 3179 1152
Loop time of 11.6049 on 16 procs for 5000 steps with 1734 atoms

unfix pysimm_md
write_dump all custom pysimm.dump.tmp id q x y z vx vy vz
quit

################################################################################
##################################    Init    ##################################
################################################################################
units           real
atom_style      full
pair_style      lj/cut/coul/long 12.0  12.0
kspace_style    pppm 1e-4
bond_style      harmonic
angle_style     harmonic
dihedral_style  fourier
improper_style  cvff
special_bonds   amber
pair_modify     mix arithmetic
read_data       temp.lmps
  orthogonal box = (-155.284 -155.284 -155.284) to (155.284 155.284 155.284)
  reading atoms ...
  1790 atoms
  reading velocities ...
  1790 velocities
  scanning bonds ...
  scanning angles ...
  scanning dihedrals ...
  scanning impropers ...
  reading bonds ...
  1959 bonds
  reading angles ...
  3440 angles
  reading dihedrals ...
  5200 dihedrals
  reading impropers ...
  544 impropers
################################################################################

min_style cg
minimize 1e-05 1e-05 10000 100000
PPPM initialization ...
  G vector (1/distance) = 0.0883507
  grid = 24 24 24
  stencil order = 5
  estimated absolute RMS force accuracy = 0.0329121
  estimated relative force accuracy = 9.91139e-05
  3d grid and FFT values/proc = 3179 1152
  update every 1 steps, delay 0 steps, check yes
Loop time of 0.484373 on 16 procs for 38 steps with 1790 atoms

Minimization stats:
  Stopping criterion = linesearch alpha is zero
  Energy initial, next-to-last, final =
  Force two-norm initial, final = 87.5575 53.9672
  Force max component initial, final = 9.38716 5.38461
  Final line search alpha, max atom move = 2.35534e-12 1.26826e-11
  Iterations, force evaluations = 38 135

timestep        1
fix             pysimm_md all nvt temp 300 300 100
run             5000
PPPM initialization ...
  G vector (1/distance) = 0.0883507
  grid = 24 24 24
  stencil order = 5
  estimated absolute RMS force accuracy = 0.0329121
  estimated relative force accuracy = 9.91139e-05
  3d grid and FFT values/proc = 3179 1152
Loop time of 8.63839 on 16 procs for 5000 steps with 1790 atoms

unfix pysimm_md
write_dump all custom pysimm.dump.tmp id q x y z vx vy vz
quit

################################################################################
##################################    Init    ##################################
################################################################################
units           real
atom_style      full
pair_style      lj/cut/coul/long 12.0  12.0
kspace_style    pppm 1e-4
bond_style      harmonic
angle_style     harmonic
dihedral_style  fourier
improper_style  cvff
special_bonds   amber
pair_modify     mix arithmetic
read_data       temp.lmps
  orthogonal box = (-156.791 -156.791 -156.791) to (156.791 156.791 156.791)
  reading atoms ...
  1852 atoms
  reading velocities ...
  1852 velocities
  scanning bonds ...
  scanning angles ...
  scanning dihedrals ...
  scanning impropers ...
  reading bonds ...
  2026 bonds
  reading angles ...
  3560 angles
  reading dihedrals ...
  5372 dihedrals
  reading impropers ...
  560 impropers
################################################################################

min_style cg
minimize 1e-05 1e-05 10000 100000
PPPM initialization ...
  G vector (1/distance) = 0.0877067
  grid = 24 24 24
  stencil order = 5
  estimated absolute RMS force accuracy = 0.0332341
  estimated relative force accuracy = 0.000100083
  3d grid and FFT values/proc = 3179 1152
  update every 1 steps, delay 0 steps, check yes
Loop time of 1.47622 on 16 procs for 102 steps with 1852 atoms

Minimization stats:
  Stopping criterion = linesearch alpha is zero
  Energy initial, next-to-last, final =
  Force two-norm initial, final = 206.601 69.7374
  Force max component initial, final = 42.4312 24.7607
  Final line search alpha, max atom move = 1.94292e-12 4.81081e-11
  Iterations, force evaluations = 102 267

timestep        1
fix             pysimm_md all nvt temp 300 300 100
run             5000
PPPM initialization ...
  G vector (1/distance) = 0.0877067
  grid = 24 24 24
  stencil order = 5
  estimated absolute RMS force accuracy = 0.0332341
  estimated relative force accuracy = 0.000100083
  3d grid and FFT values/proc = 3179 1152
Loop time of 13.7364 on 16 procs for 5000 steps with 1852 atoms

unfix pysimm_md
write_dump all custom pysimm.dump.tmp id q x y z vx vy vz
quit

################################################################################
##################################    Init    ##################################
################################################################################
units           real
atom_style      full
pair_style      lj/cut/coul/long 12.0  12.0
kspace_style    pppm 1e-4
bond_style      harmonic
angle_style     harmonic
dihedral_style  fourier
improper_style  cvff
special_bonds   amber
pair_modify     mix arithmetic
read_data       temp.lmps
  orthogonal box = (-158.27 -158.27 -158.27) to (158.27 158.27 158.27)
  reading atoms ...
  1914 atoms
  reading velocities ...
  1914 velocities
  scanning bonds ...
  scanning angles ...
  scanning dihedrals ...
  scanning impropers ...
  reading bonds ...
  2093 bonds
  reading angles ...
  3680 angles
  reading dihedrals ...
  5544 dihedrals
  reading impropers ...
  576 impropers
################################################################################

min_style cg
minimize 1e-05 1e-05 10000 100000
PPPM initialization ...
  G vector (1/distance) = 0.0870835
  grid = 24 24 24
  stencil order = 5
  estimated absolute RMS force accuracy = 0.0335498
  estimated relative force accuracy = 0.000101034
  3d grid and FFT values/proc = 3179 1152
  update every 1 steps, delay 0 steps, check yes
Loop time of 0.394323 on 16 procs for 16 steps with 1914 atoms

Minimization stats:
  Stopping criterion = linesearch alpha is zero
  Energy initial, next-to-last, final =
  Force two-norm initial, final = 98.184 74.8253
  Force max component initial, final = 11.8342 7.83975
  Final line search alpha, max atom move = 1.95462e-12 1.53237e-11
  Iterations, force evaluations = 16 91

timestep        1
fix             pysimm_md all nvt temp 300 300 100
run             5000
PPPM initialization ...
  G vector (1/distance) = 0.0870835
  grid = 24 24 24
  stencil order = 5
  estimated absolute RMS force accuracy = 0.0335498
  estimated relative force accuracy = 0.000101034
  3d grid and FFT values/proc = 3179 1152
Loop time of 8.84835 on 16 procs for 5000 steps with 1914 atoms

unfix pysimm_md
write_dump all custom pysimm.dump.tmp id q x y z vx vy vz
quit

################################################################################
##################################    Init    ##################################
################################################################################
units           real
atom_style      full
pair_style      lj/cut/coul/long 12.0  12.0
kspace_style    pppm 1e-4
bond_style      harmonic
angle_style     harmonic
dihedral_style  fourier
improper_style  cvff
special_bonds   amber
pair_modify     mix arithmetic
read_data       temp.lmps
  orthogonal box = (-159.723 -159.723 -159.723) to (159.723 159.723 159.723)
  reading atoms ...
  1940 atoms
  reading velocities ...
  1940 velocities
  scanning bonds ...
  scanning angles ...
  scanning dihedrals ...
  scanning impropers ...
  reading bonds ...
  2124 bonds
  reading angles ...
  3728 angles
  reading dihedrals ...
  5644 dihedrals
  reading impropers ...
  592 impropers
################################################################################

min_style cg
minimize 1e-05 1e-05 10000 100000
PPPM initialization ...
  G vector (1/distance) = 0.0864794
  grid = 24 24 24
  stencil order = 5
  estimated absolute RMS force accuracy = 0.0346811
  estimated relative force accuracy = 0.000104441
  3d grid and FFT values/proc = 3179 1152
  update every 1 steps, delay 0 steps, check yes
Loop time of 0.636413 on 16 procs for 26 steps with 1940 atoms

Minimization stats:
  Stopping criterion = linesearch alpha is zero
  Energy initial, next-to-last, final =
  Force two-norm initial, final = 107.569 78.9633
  Force max component initial, final = 12.0854 8.14071
  Final line search alpha, max atom move = 1.03601e-12 8.43382e-12
  Iterations, force evaluations = 26 113

timestep        1
fix             pysimm_md all nvt temp 300 300 100
run             5000
PPPM initialization ...
  G vector (1/distance) = 0.0864794
  grid = 24 24 24
  stencil order = 5
  estimated absolute RMS force accuracy = 0.0346811
  estimated relative force accuracy = 0.000104441
  3d grid and FFT values/proc = 3179 1152
Loop time of 12.9455 on 16 procs for 5000 steps with 1940 atoms

unfix pysimm_md
write_dump all custom pysimm.dump.tmp id q x y z vx vy vz
quit

################################################################################
##################################    Init    ##################################
################################################################################
units           real
atom_style      full
pair_style      lj/cut/coul/long 12.0  12.0
kspace_style    pppm 1e-4
bond_style      harmonic
angle_style     harmonic
dihedral_style  fourier
improper_style  cvff
special_bonds   amber
pair_modify     mix arithmetic
read_data       temp.lmps
  orthogonal box = (-163.941 -163.941 -163.941) to (163.941 163.941 163.941)
  reading atoms ...
  1996 atoms
  reading velocities ...
  1996 velocities
  scanning bonds ...
  scanning angles ...
  scanning dihedrals ...
  scanning impropers ...
  reading bonds ...
  2185 bonds
  reading angles ...
  3836 angles
  reading dihedrals ...
  5804 dihedrals
  reading impropers ...
  608 impropers
################################################################################

min_style cg
minimize 1e-05 1e-05 10000 100000
PPPM initialization ...
  G vector (1/distance) = 0.0847708
  grid = 24 24 24
  stencil order = 5
  estimated absolute RMS force accuracy = 0.035172
  estimated relative force accuracy = 0.000105919
  3d grid and FFT values/proc = 3179 1152
  update every 1 steps, delay 0 steps, check yes
Loop time of 0.426146 on 16 procs for 45 steps with 1996 atoms

Minimization stats:
  Stopping criterion = linesearch alpha is zero
  Energy initial, next-to-last, final =
  Force two-norm initial, final = 66.9108 81.5717
  Force max component initial, final = 8.66054 9.49048
  Final line search alpha, max atom move = 1.47979e-12 1.4044e-11
  Iterations, force evaluations = 45 149

timestep        1
fix             pysimm_md all nvt temp 300 300 100
run             5000
PPPM initialization ...
  G vector (1/distance) = 0.0847708
  grid = 24 24 24
  stencil order = 5
  estimated absolute RMS force accuracy = 0.035172
  estimated relative force accuracy = 0.000105919
  3d grid and FFT values/proc = 3179 1152
Loop time of 7.20957 on 16 procs for 5000 steps with 1996 atoms

unfix pysimm_md
write_dump all custom pysimm.dump.tmp id q x y z vx vy vz
quit

################################################################################
##################################    Init    ##################################
################################################################################
units           real
atom_style      full
pair_style      lj/cut/coul/long 12.0  12.0
kspace_style    pppm 1e-4
bond_style      harmonic
angle_style     harmonic
dihedral_style  fourier
improper_style  cvff
special_bonds   amber
pair_modify     mix arithmetic
read_data       temp.lmps
  orthogonal box = (-162.55 -162.55 -162.55) to (162.55 162.55 162.55)
  reading atoms ...
  2052 atoms
  reading velocities ...
  2052 velocities
  scanning bonds ...
  scanning angles ...
  scanning dihedrals ...
  scanning impropers ...
  reading bonds ...
  2246 bonds
  reading angles ...
  3944 angles
  reading dihedrals ...
  5964 dihedrals
  reading impropers ...
  624 impropers
################################################################################

min_style cg
minimize 1e-05 1e-05 10000 100000
PPPM initialization ...
  G vector (1/distance) = 0.0853268
  grid = 24 24 24
  stencil order = 5
  estimated absolute RMS force accuracy = 0.0355235
  estimated relative force accuracy = 0.000106978
  3d grid and FFT values/proc = 3179 1152
  update every 1 steps, delay 0 steps, check yes
Loop time of 0.734554 on 16 procs for 40 steps with 2052 atoms

Minimization stats:
  Stopping criterion = linesearch alpha is zero
  Energy initial, next-to-last, final =
  Force two-norm initial, final = 179.447 67.4422
  Force max component initial, final = 63.1044 34.9053
  Final line search alpha, max atom move = 3.22068e-12 1.12419e-10
  Iterations, force evaluations = 40 145

timestep        1
fix             pysimm_md all nvt temp 300 300 100
run             5000
PPPM initialization ...
  G vector (1/distance) = 0.0853268
  grid = 24 24 24
  stencil order = 5
  estimated absolute RMS force accuracy = 0.0355235
  estimated relative force accuracy = 0.000106978
  3d grid and FFT values/proc = 3179 1152
Loop time of 11.8033 on 16 procs for 5000 steps with 2052 atoms

unfix pysimm_md
write_dump all custom pysimm.dump.tmp id q x y z vx vy vz
quit

################################################################################
##################################    Init    ##################################
################################################################################
units           real
atom_style      full
pair_style      lj/cut/coul/long 12.0  12.0
kspace_style    pppm 1e-4
bond_style      harmonic
angle_style     harmonic
dihedral_style  fourier
improper_style  cvff
special_bonds   amber
pair_modify     mix arithmetic
read_data       temp.lmps
  orthogonal box = (-163.928 -163.928 -163.928) to (163.928 163.928 163.928)
  reading atoms ...
  2108 atoms
  reading velocities ...
  2108 velocities
  scanning bonds ...
  scanning angles ...
  scanning dihedrals ...
  scanning impropers ...
  reading bonds ...
  2307 bonds
  reading angles ...
  4052 angles
  reading dihedrals ...
  6124 dihedrals
  reading impropers ...
  640 impropers
################################################################################

min_style cg
minimize 1e-05 1e-05 10000 100000
PPPM initialization ...
  G vector (1/distance) = 0.0847759
  grid = 24 24 24
  stencil order = 5
  estimated absolute RMS force accuracy = 0.0359309
  estimated relative force accuracy = 0.000108205
  3d grid and FFT values/proc = 3179 1152
  update every 1 steps, delay 0 steps, check yes
Loop time of 0.552474 on 16 procs for 9 steps with 2108 atoms

Minimization stats:
  Stopping criterion = linesearch alpha is zero
  Energy initial, next-to-last, final =
  Force two-norm initial, final = 90.7499 67.0082
  Force max component initial, final = 10.0299 5.92881
  Final line search alpha, max atom move = 2.07585e-12 1.23073e-11
  Iterations, force evaluations = 9 79

timestep        1
fix             pysimm_md all nvt temp 300 300 100
run             5000
PPPM initialization ...
  G vector (1/distance) = 0.0847759
  grid = 24 24 24
  stencil order = 5
  estimated absolute RMS force accuracy = 0.0359309
  estimated relative force accuracy = 0.000108205
  3d grid and FFT values/proc = 3179 1152
Loop time of 12.8085 on 16 procs for 5000 steps with 2108 atoms

unfix pysimm_md
write_dump all custom pysimm.dump.tmp id q x y z vx vy vz
quit

################################################################################
##################################    Init    ##################################
################################################################################
units           real
atom_style      full
pair_style      lj/cut/coul/long 12.0  12.0
kspace_style    pppm 1e-4
bond_style      harmonic
angle_style     harmonic
dihedral_style  fourier
improper_style  cvff
special_bonds   amber
pair_modify     mix arithmetic
read_data       temp.lmps
  orthogonal box = (-165.283 -165.283 -165.283) to (165.283 165.283 165.283)
  reading atoms ...
  2194 atoms
  reading velocities ...
  2194 velocities
  scanning bonds ...
  scanning angles ...
  scanning dihedrals ...
  scanning impropers ...
  reading bonds ...
  2398 bonds
  reading angles ...
  4220 angles
  reading dihedrals ...
  6344 dihedrals
  reading impropers ...
  656 impropers
################################################################################

min_style cg
minimize 1e-05 1e-05 10000 100000
PPPM initialization ...
  G vector (1/distance) = 0.0842409
  grid = 24 24 24
  stencil order = 5
  estimated absolute RMS force accuracy = 0.0356798
  estimated relative force accuracy = 0.000107449
  3d grid and FFT values/proc = 3179 1152
  update every 1 steps, delay 0 steps, check yes
Loop time of 0.576015 on 16 procs for 13 steps with 2194 atoms

Minimization stats:
  Stopping criterion = linesearch alpha is zero
  Energy initial, next-to-last, final =
  Force two-norm initial, final = 92.2091 64.6104
  Force max component initial, final = 8.2237 7.62993
  Final line search alpha, max atom move = 1.77505e-12 1.35435e-11
  Iterations, force evaluations = 13 87

timestep        1
fix             pysimm_md all nvt temp 300 300 100
run             5000
PPPM initialization ...
  G vector (1/distance) = 0.0842409
  grid = 24 24 24
  stencil order = 5
  estimated absolute RMS force accuracy = 0.0356798
  estimated relative force accuracy = 0.000107449
  3d grid and FFT values/proc = 3179 1152
Loop time of 14.0873 on 16 procs for 5000 steps with 2194 atoms

unfix pysimm_md
write_dump all custom pysimm.dump.tmp id q x y z vx vy vz
quit

################################################################################
##################################    Init    ##################################
################################################################################
units           real
atom_style      full
pair_style      lj/cut/coul/long 12.0  12.0
kspace_style    pppm 1e-4
bond_style      harmonic
angle_style     harmonic
dihedral_style  fourier
improper_style  cvff
special_bonds   amber
pair_modify     mix arithmetic
read_data       temp.lmps
  orthogonal box = (-166.616 -166.616 -166.616) to (166.616 166.616 166.616)
  reading atoms ...
  2244 atoms
  reading velocities ...
  2244 velocities
  scanning bonds ...
  scanning angles ...
  scanning dihedrals ...
  scanning impropers ...
  reading bonds ...
  2453 bonds
  reading angles ...
  4316 angles
  reading dihedrals ...
  6492 dihedrals
  reading impropers ...
  672 impropers
################################################################################

min_style cg
minimize 1e-05 1e-05 10000 100000
PPPM initialization ...
  G vector (1/distance) = 0.0863857
  grid = 25 25 25
  stencil order = 5
  estimated absolute RMS force accuracy = 0.0339195
  estimated relative force accuracy = 0.000102147
  3d grid and FFT values/proc = 3888 1250
  update every 1 steps, delay 0 steps, check yes
Loop time of 0.850016 on 16 procs for 12 steps with 2244 atoms

Minimization stats:
  Stopping criterion = linesearch alpha is zero
  Energy initial, next-to-last, final =
  Force two-norm initial, final = 133.23 108.032
  Force max component initial, final = 18.0779 35.3184
  Final line search alpha, max atom move = 6.08253e-13 2.14825e-11
  Iterations, force evaluations = 12 87

timestep        1
fix             pysimm_md all nvt temp 300 300 100
run             5000
PPPM initialization ...
  G vector (1/distance) = 0.0863857
  grid = 25 25 25
  stencil order = 5
  estimated absolute RMS force accuracy = 0.0339195
  estimated relative force accuracy = 0.000102147
  3d grid and FFT values/proc = 3888 1250
Loop time of 19.16 on 16 procs for 5000 steps with 2244 atoms

unfix pysimm_md
write_dump all custom pysimm.dump.tmp id q x y z vx vy vz
quit

################################################################################
##################################    Init    ##################################
################################################################################
units           real
atom_style      full
pair_style      lj/cut/coul/long 12.0  12.0
kspace_style    pppm 1e-4
bond_style      harmonic
angle_style     harmonic
dihedral_style  fourier
improper_style  cvff
special_bonds   amber
pair_modify     mix arithmetic
read_data       temp.lmps
  orthogonal box = (-167.928 -167.928 -167.928) to (167.928 167.928 167.928)
  reading atoms ...
  2294 atoms
  reading velocities ...
  2294 velocities
  scanning bonds ...
  scanning angles ...
  scanning dihedrals ...
  scanning impropers ...
  reading bonds ...
  2508 bonds
  reading angles ...
  4412 angles
  reading dihedrals ...
  6640 dihedrals
  reading impropers ...
  688 impropers
################################################################################

min_style cg
minimize 1e-05 1e-05 10000 100000
PPPM initialization ...
  G vector (1/distance) = 0.0858695
  grid = 25 25 25
  stencil order = 5
  estimated absolute RMS force accuracy = 0.0344237
  estimated relative force accuracy = 0.000103666
  3d grid and FFT values/proc = 3888 1250
  update every 1 steps, delay 0 steps, check yes
Loop time of 0.797783 on 16 procs for 46 steps with 2294 atoms

Minimization stats:
  Stopping criterion = linesearch alpha is zero
  Energy initial, next-to-last, final =
  Force two-norm initial, final = 95.8042 65.1165
  Force max component initial, final = 9.17637 8.39058
  Final line search alpha, max atom move = 1.66067e-12 1.3934e-11
  Iterations, force evaluations = 46 156

timestep        1
fix             pysimm_md all nvt temp 300 300 100
run             5000
PPPM initialization ...
  G vector (1/distance) = 0.0858695
  grid = 25 25 25
  stencil order = 5
  estimated absolute RMS force accuracy = 0.0344237
  estimated relative force accuracy = 0.000103666
  3d grid and FFT values/proc = 3888 1250
Loop time of 11.2865 on 16 procs for 5000 steps with 2294 atoms

unfix pysimm_md
write_dump all custom pysimm.dump.tmp id q x y z vx vy vz
quit

################################################################################
##################################    Init    ##################################
################################################################################
units           real
atom_style      full
pair_style      lj/cut/coul/long 12.0  12.0
kspace_style    pppm 1e-4
bond_style      harmonic
angle_style     harmonic
dihedral_style  fourier
improper_style  cvff
special_bonds   amber
pair_modify     mix arithmetic
read_data       temp.lmps
  orthogonal box = (-172.152 -172.152 -172.152) to (172.152 172.152 172.152)
  reading atoms ...
  2326 atoms
  reading velocities ...
  2326 velocities
  scanning bonds ...
  scanning angles ...
  scanning dihedrals ...
  scanning impropers ...
  reading bonds ...
  2545 bonds
  reading angles ...
  4472 angles
  reading dihedrals ...
  6752 dihedrals
  reading impropers ...
  704 impropers
################################################################################

min_style cg
minimize 1e-05 1e-05 10000 100000
PPPM initialization ...
  G vector (1/distance) = 0.0842477
  grid = 25 25 25
  stencil order = 5
  estimated absolute RMS force accuracy = 0.0353276
  estimated relative force accuracy = 0.000106388
  3d grid and FFT values/proc = 3888 1250
  update every 1 steps, delay 0 steps, check yes
Loop time of 1.21684 on 16 procs for 49 steps with 2326 atoms

Minimization stats:
  Stopping criterion = linesearch alpha is zero
  Energy initial, next-to-last, final =
  Force two-norm initial, final = 166.226 116.746
  Force max component initial, final = 73.4916 35.5803
  Final line search alpha, max atom move = 4.88276e-13 1.7373e-11
  Iterations, force evaluations = 49 161

timestep        1
fix             pysimm_md all nvt temp 300 300 100
run             5000
PPPM initialization ...
  G vector (1/distance) = 0.0842477
  grid = 25 25 25
  stencil order = 5
  estimated absolute RMS force accuracy = 0.0353276
  estimated relative force accuracy = 0.000106388
  3d grid and FFT values/proc = 3888 1250
Loop time of 17.9875 on 16 procs for 5000 steps with 2326 atoms

unfix pysimm_md
write_dump all custom pysimm.dump.tmp id q x y z vx vy vz
quit

################################################################################
##################################    Init    ##################################
################################################################################
units           real
atom_style      full
pair_style      lj/cut/coul/long 12.0  12.0
kspace_style    pppm 1e-4
bond_style      harmonic
angle_style     harmonic
dihedral_style  fourier
improper_style  cvff
special_bonds   amber
pair_modify     mix arithmetic
read_data       temp.lmps
  orthogonal box = (-173.446 -173.446 -173.446) to (173.446 173.446 173.446)
  reading atoms ...
  2370 atoms
  reading velocities ...
  2370 velocities
  scanning bonds ...
  scanning angles ...
  scanning dihedrals ...
  scanning impropers ...
  reading bonds ...
  2594 bonds
  reading angles ...
  4556 angles
  reading dihedrals ...
  6888 dihedrals
  reading impropers ...
  720 impropers
################################################################################

min_style cg
minimize 1e-05 1e-05 10000 100000
PPPM initialization ...
  G vector (1/distance) = 0.0837623
  grid = 25 25 25
  stencil order = 5
  estimated absolute RMS force accuracy = 0.0359186
  estimated relative force accuracy = 0.000108168
  3d grid and FFT values/proc = 3888 1250
  update every 1 steps, delay 0 steps, check yes
Loop time of 1.03206 on 16 procs for 37 steps with 2370 atoms

Minimization stats:
  Stopping criterion = linesearch alpha is zero
  Energy initial, next-to-last, final =
  Force two-norm initial, final = 89.051 69.8104
  Force max component initial, final = 12.3786 8.36861
  Final line search alpha, max atom move = 2.1058e-12 1.76226e-11
  Iterations, force evaluations = 37 133

timestep        1
fix             pysimm_md all nvt temp 300 300 100
run             5000
PPPM initialization ...
  G vector (1/distance) = 0.0837623
  grid = 25 25 25
  stencil order = 5
  estimated absolute RMS force accuracy = 0.0359186
  estimated relative force accuracy = 0.000108168
  3d grid and FFT values/proc = 3888 1250
Loop time of 18.6231 on 16 procs for 5000 steps with 2370 atoms

unfix pysimm_md
write_dump all custom pysimm.dump.tmp id q x y z vx vy vz
quit

################################################################################
##################################    Init    ##################################
################################################################################
units           real
atom_style      full
pair_style      lj/cut/coul/long 12.0  12.0
kspace_style    pppm 1e-4
bond_style      harmonic
angle_style     harmonic
dihedral_style  fourier
improper_style  cvff
special_bonds   amber
pair_modify     mix arithmetic
read_data       temp.lmps
  orthogonal box = (-174.721 -174.721 -174.721) to (174.721 174.721 174.721)
  reading atoms ...
  2486 atoms
  reading velocities ...
  2486 velocities
  scanning bonds ...
  scanning angles ...
  scanning dihedrals ...
  scanning impropers ...
  reading bonds ...
  2715 bonds
  reading angles ...
  4784 angles
  reading dihedrals ...
  7168 dihedrals
  reading impropers ...
  736 impropers
################################################################################

min_style cg
minimize 1e-05 1e-05 10000 100000
PPPM initialization ...
  G vector (1/distance) = 0.08329
  grid = 25 25 25
  stencil order = 5
  estimated absolute RMS force accuracy = 0.0351161
  estimated relative force accuracy = 0.000105751
  3d grid and FFT values/proc = 3888 1250
  update every 1 steps, delay 0 steps, check yes
Loop time of 0.547753 on 16 procs for 12 steps with 2486 atoms

Minimization stats:
  Stopping criterion = linesearch alpha is zero
  Energy initial, next-to-last, final =
  Force two-norm initial, final = 101.21 60.6197
  Force max component initial, final = 12.6232 6.87465
  Final line search alpha, max atom move = 2.08657e-12 1.43445e-11
  Iterations, force evaluations = 12 85

timestep        1
fix             pysimm_md all nvt temp 300 300 100
run             5000
PPPM initialization ...
  G vector (1/distance) = 0.08329
  grid = 25 25 25
  stencil order = 5
  estimated absolute RMS force accuracy = 0.0351161
  estimated relative force accuracy = 0.000105751
  3d grid and FFT values/proc = 3888 1250
Loop time of 13.3827 on 16 procs for 5000 steps with 2486 atoms

unfix pysimm_md
write_dump all custom pysimm.dump.tmp id q x y z vx vy vz
quit

################################################################################
##################################    Init    ##################################
################################################################################
units           real
atom_style      full
pair_style      lj/cut/coul/long 12.0  12.0
kspace_style    pppm 1e-4
bond_style      harmonic
angle_style     harmonic
dihedral_style  fourier
improper_style  cvff
special_bonds   amber
pair_modify     mix arithmetic
read_data       temp.lmps
  orthogonal box = (-175.978 -175.978 -175.978) to (175.978 175.978 175.978)
  reading atoms ...
  2482 atoms
  reading velocities ...
  2482 velocities
  scanning bonds ...
  scanning angles ...
  scanning dihedrals ...
  scanning impropers ...
  reading bonds ...
  2716 bonds
  reading angles ...
  4772 angles
  reading dihedrals ...
  7208 dihedrals
  reading impropers ...
  752 impropers
################################################################################

min_style cg
minimize 1e-05 1e-05 10000 100000
PPPM initialization ...
  G vector (1/distance) = 0.0878638
  grid = 27 27 27
  stencil order = 5
  estimated absolute RMS force accuracy = 0.0323477
  estimated relative force accuracy = 9.74143e-05
  3d grid and FFT values/proc = 4332 1458
  update every 1 steps, delay 0 steps, check yes
Loop time of 0.558449 on 16 procs for 6 steps with 2482 atoms

Minimization stats:
  Stopping criterion = linesearch alpha is zero
  Energy initial, next-to-last, final =
  Force two-norm initial, final = 104.157 77.883
  Force max component initial, final = 16.173 10.0569
  Final line search alpha, max atom move = 1.98241e-12 1.99368e-11
  Iterations, force evaluations = 6 73

timestep        1
fix             pysimm_md all nvt temp 300 300 100
run             5000
PPPM initialization ...
  G vector (1/distance) = 0.0878638
  grid = 27 27 27
  stencil order = 5
  estimated absolute RMS force accuracy = 0.0323477
  estimated relative force accuracy = 9.74143e-05
  3d grid and FFT values/proc = 4332 1458
Loop time of 17.2255 on 16 procs for 5000 steps with 2482 atoms

unfix pysimm_md
write_dump all custom pysimm.dump.tmp id q x y z vx vy vz
quit

################################################################################
##################################    Init    ##################################
################################################################################
units           real
atom_style      full
pair_style      lj/cut/coul/long 12.0  12.0
kspace_style    pppm 1e-4
bond_style      harmonic
angle_style     harmonic
dihedral_style  fourier
improper_style  cvff
special_bonds   amber
pair_modify     mix arithmetic
read_data       temp.lmps
  orthogonal box = (-174.199 -174.199 -174.199) to (174.199 174.199 174.199)
  reading atoms ...
  2562 atoms
  reading velocities ...
  2562 velocities
  scanning bonds ...
  scanning angles ...
  scanning dihedrals ...
  scanning impropers ...
  reading bonds ...
  2801 bonds
  reading angles ...
  4928 angles
  reading dihedrals ...
  7416 dihedrals
  reading impropers ...
  768 impropers
################################################################################

min_style cg
minimize 1e-05 1e-05 10000 100000
PPPM initialization ...
  G vector (1/distance) = 0.0885415
  grid = 27 27 27
  stencil order = 5
  estimated absolute RMS force accuracy = 0.032172
  estimated relative force accuracy = 9.68851e-05
  3d grid and FFT values/proc = 4332 1458
  update every 1 steps, delay 0 steps, check yes
Loop time of 1.24123 on 16 procs for 71 steps with 2562 atoms

Minimization stats:
  Stopping criterion = linesearch alpha is zero
  Energy initial, next-to-last, final =
  Force two-norm initial, final = 214.169 129.427
  Force max component initial, final = 44.1984 31.9825
  Final line search alpha, max atom move = 7.20343e-13 2.30384e-11
  Iterations, force evaluations = 71 205

timestep        1
fix             pysimm_md all nvt temp 300 300 100
run             5000
PPPM initialization ...
  G vector (1/distance) = 0.0885415
  grid = 27 27 27
  stencil order = 5
  estimated absolute RMS force accuracy = 0.032172
  estimated relative force accuracy = 9.68851e-05
  3d grid and FFT values/proc = 4332 1458
Loop time of 15.2012 on 16 procs for 5000 steps with 2562 atoms

unfix pysimm_md
write_dump all custom pysimm.dump.tmp id q x y z vx vy vz
quit

################################################################################
##################################    Init    ##################################
################################################################################
units           real
atom_style      full
pair_style      lj/cut/coul/long 12.0  12.0
kspace_style    pppm 1e-4
bond_style      harmonic
angle_style     harmonic
dihedral_style  fourier
improper_style  cvff
special_bonds   amber
pair_modify     mix arithmetic
read_data       temp.lmps
  orthogonal box = (-178.44 -178.44 -178.44) to (178.44 178.44 178.44)
  reading atoms ...
  2618 atoms
  reading velocities ...
  2618 velocities
  scanning bonds ...
  scanning angles ...
  scanning dihedrals ...
  scanning impropers ...
  reading bonds ...
  2862 bonds
  reading angles ...
  5036 angles
  reading dihedrals ...
  7576 dihedrals
  reading impropers ...
  784 impropers
################################################################################

min_style cg
minimize 1e-05 1e-05 10000 100000
PPPM initialization ...
  G vector (1/distance) = 0.0869424
  grid = 27 27 27
  stencil order = 5
  estimated absolute RMS force accuracy = 0.0326051
  estimated relative force accuracy = 9.81892e-05
  3d grid and FFT values/proc = 4332 1458
  update every 1 steps, delay 0 steps, check yes
Loop time of 0.963547 on 16 procs for 28 steps with 2618 atoms

Minimization stats:
  Stopping criterion = linesearch alpha is zero
  Energy initial, next-to-last, final =
  Force two-norm initial, final = 104.277 67.9785
  Force max component initial, final = 14.417 8.66041
  Final line search alpha, max atom move = 2.27416e-12 1.96951e-11
  Iterations, force evaluations = 28 115

timestep        1
fix             pysimm_md all nvt temp 300 300 100
run             5000
PPPM initialization ...
  G vector (1/distance) = 0.0869424
  grid = 27 27 27
  stencil order = 5
  estimated absolute RMS force accuracy = 0.0326051
  estimated relative force accuracy = 9.81892e-05
  3d grid and FFT values/proc = 4332 1458
Loop time of 23.9817 on 16 procs for 5000 steps with 2618 atoms

unfix pysimm_md
write_dump all custom pysimm.dump.tmp id q x y z vx vy vz
quit

################################################################################
##################################    Init    ##################################
################################################################################
units           real
atom_style      full
pair_style      lj/cut/coul/long 12.0  12.0
kspace_style    pppm 1e-4
bond_style      harmonic
angle_style     harmonic
dihedral_style  fourier
improper_style  cvff
special_bonds   amber
pair_modify     mix arithmetic
read_data       temp.lmps
  orthogonal box = (-179.646 -179.646 -179.646) to (179.646 179.646 179.646)
  reading atoms ...
  2668 atoms
  reading velocities ...
  2668 velocities
  scanning bonds ...
  scanning angles ...
  scanning dihedrals ...
  scanning impropers ...
  reading bonds ...
  2917 bonds
  reading angles ...
  5132 angles
  reading dihedrals ...
  7724 dihedrals
  reading impropers ...
  800 impropers
################################################################################

min_style cg
minimize 1e-05 1e-05 10000 100000
PPPM initialization ...
  G vector (1/distance) = 0.0864969
  grid = 27 27 27
  stencil order = 5
  estimated absolute RMS force accuracy = 0.0330243
  estimated relative force accuracy = 9.94516e-05
  3d grid and FFT values/proc = 4332 1458
  update every 1 steps, delay 0 steps, check yes
Loop time of 1.36726 on 16 procs for 77 steps with 2668 atoms

Minimization stats:
  Stopping criterion = linesearch alpha is zero
  Energy initial, next-to-last, final =
  Force two-norm initial, final = 104.638 57.0282
  Force max component initial, final = 11.8419 6.51877
  Final line search alpha, max atom move = 2.58723e-12 1.68656e-11
  Iterations, force evaluations = 77 208

timestep        1
fix             pysimm_md all nvt temp 300 300 100
run             5000
PPPM initialization ...
  G vector (1/distance) = 0.0864969
  grid = 27 27 27
  stencil order = 5
  estimated absolute RMS force accuracy = 0.0330243
  estimated relative force accuracy = 9.94516e-05
  3d grid and FFT values/proc = 4332 1458
Loop time of 15.2421 on 16 procs for 5000 steps with 2668 atoms

unfix pysimm_md
write_dump all custom pysimm.dump.tmp id q x y z vx vy vz
quit
