################################################################################
##################################    Init    ##################################
################################################################################
units           real
atom_style      full
pair_style      lj/cut/coul/long 12.0  12.0
kspace_style    pppm 1e-4
bond_style      harmonic
angle_style     harmonic
dihedral_style  fourier
improper_style  cvff
special_bonds   amber
pair_modify     mix arithmetic
read_data       temp.lmps
  orthogonal box = (-105.057 -105.057 -105.057) to (105.057 105.057 105.057)
  reading atoms ...
  572 atoms
  reading velocities ...
  572 velocities
  scanning bonds ...
  scanning angles ...
  scanning dihedrals ...
  scanning impropers ...
  reading bonds ...
  625 bonds
  reading angles ...
  1084 angles
  reading dihedrals ...
  1644 dihedrals
  reading impropers ...
  168 impropers
################################################################################

min_style cg
minimize 1e-05 1e-05 10000 100000
PPPM initialization ...
  G vector (1/distance) = 0.0953884
  grid = 18 18 18
  stencil order = 5
  estimated absolute RMS force accuracy = 0.029633
  estimated relative force accuracy = 8.9239e-05
  3d grid and FFT values/proc = 1960 648
  update every 1 steps, delay 0 steps, check yes
Step Temp E_pair E_mol TotEng Press
0    2081.4818    212.56348    726.57966    4481.9136    17.278559
Loop time of 0.204166 on 16 procs for 17 steps with 572 atoms

Minimization stats:
  Stopping criterion = linesearch alpha is zero
  Energy initial, next-to-last, final =
  Force two-norm initial, final = 61.138 39.4678
  Force max component initial, final = 6.89097 4.58222
  Final line search alpha, max atom move = 4.91047e-12 2.25009e-11
  Iterations, force evaluations = 17 93

################################################################################
##################################    Init    ##################################
################################################################################
units           real
atom_style      full
pair_style      lj/cut/coul/long 12.0  12.0
kspace_style    pppm 1e-4
bond_style      harmonic
angle_style     harmonic
dihedral_style  fourier
improper_style  cvff
special_bonds   amber
pair_modify     mix arithmetic
read_data       temp.lmps
  orthogonal box = (-105.057 -105.057 -105.057) to (105.057 105.057 105.057)
  reading atoms ...
  566 atoms
  reading velocities ...
  566 velocities
  scanning bonds ...
  scanning angles ...
  scanning dihedrals ...
  scanning impropers ...
  reading bonds ...
  617 bonds
  reading angles ...
  1080 angles
  reading dihedrals ...
  1616 dihedrals
  reading impropers ...
  164 impropers
################################################################################

min_style cg
minimize 1e-05 1e-05 10000 100000
PPPM initialization ...
  G vector (1/distance) = 0.0873707
  grid = 16 16 16
  stencil order = 5
  estimated absolute RMS force accuracy = 0.0334438
  estimated relative force accuracy = 0.000100715
  3d grid and FFT values/proc = 1521 256
  update every 1 steps, delay 0 steps, check yes
Step Temp E_pair E_mol TotEng Press
0    1989.3179    208.77144    711.21702    4270.3135    16.649527
Loop time of 0.158515 on 16 procs for 30 steps with 566 atoms

Minimization stats:
  Stopping criterion = linesearch alpha is zero
  Energy initial, next-to-last, final =
  Force two-norm initial, final = 62.0066 43.5685
  Force max component initial, final = 9.8259 8.07882
  Final line search alpha, max atom move = 3.41626e-12 2.75993e-11
  Iterations, force evaluations = 30 119

timestep        1
fix             pysimm_md all nvt temp 300 300 100
run             5000
PPPM initialization ...
  G vector (1/distance) = 0.0873707
  grid = 16 16 16
  stencil order = 5
  estimated absolute RMS force accuracy = 0.0334438
  estimated relative force accuracy = 0.000100715
  3d grid and FFT values/proc = 1521 256
Step Temp E_pair E_mol TotEng Press
30    1989.3179    195.77106    676.93746    4223.0336    17.455086
Loop time of 3.32753 on 16 procs for 5000 steps with 566 atoms

unfix pysimm_md
write_dump all custom pysimm.dump.tmp id q x y z vx vy vz
quit

################################################################################
##################################    Init    ##################################
################################################################################
units           real
atom_style      full
pair_style      lj/cut/coul/long 12.0  12.0
kspace_style    pppm 1e-4
bond_style      harmonic
angle_style     harmonic
dihedral_style  fourier
improper_style  cvff
special_bonds   amber
pair_modify     mix arithmetic
read_data       temp.lmps
  orthogonal box = (-108.449 -108.449 -108.449) to (108.449 108.449 108.449)
  reading atoms ...
  631 atoms
  reading velocities ...
  631 velocities
  scanning bonds ...
  scanning angles ...
  scanning dihedrals ...
  scanning impropers ...
  reading bonds ...
  690 bonds
  reading angles ...
  1194 angles
  reading dihedrals ...
  1818 dihedrals
  reading impropers ...
  186 impropers
################################################################################

min_style cg
minimize 1e-05 1e-05 10000 100000
PPPM initialization ...
  G vector (1/distance) = 0.0931861
  grid = 18 18 18
  stencil order = 5
  estimated absolute RMS force accuracy = 0.0321919
  estimated relative force accuracy = 9.6945e-05
  3d grid and FFT values/proc = 1960 648
  update every 1 steps, delay 0 steps, check yes
Step Temp E_pair E_mol TotEng Press
0    1487.7511    232.25201    777.73161    3803.8468    11.903306
Loop time of 0.219849 on 16 procs for 32 steps with 631 atoms

Minimization stats:
  Stopping criterion = linesearch alpha is zero
  Energy initial, next-to-last, final =
  Force two-norm initial, final = 61.5726 39.9789
  Force max component initial, final = 7.3091 6.61958
  Final line search alpha, max atom move = 6.62572e-12 4.38595e-11
  Iterations, force evaluations = 32 121

timestep        1
fix             pysimm_md all nvt temp 300 300 100
run             5000
PPPM initialization ...
  G vector (1/distance) = 0.0931861
  grid = 18 18 18
  stencil order = 5
  estimated absolute RMS force accuracy = 0.0321919
  estimated relative force accuracy = 9.6945e-05
  3d grid and FFT values/proc = 1960 648
Step Temp E_pair E_mol TotEng Press
32    1487.7511    227.44041    747.95118    3769.2548     12.49453
Loop time of 4.17958 on 16 procs for 5000 steps with 631 atoms

unfix pysimm_md
write_dump all custom pysimm.dump.tmp id q x y z vx vy vz
quit

################################################################################
##################################    Init    ##################################
################################################################################
units           real
atom_style      full
pair_style      lj/cut/coul/long 12.0  12.0
kspace_style    pppm 1e-4
bond_style      harmonic
angle_style     harmonic
dihedral_style  fourier
improper_style  cvff
special_bonds   amber
pair_modify     mix arithmetic
read_data       temp.lmps
  orthogonal box = (-111.64 -111.64 -111.64) to (111.64 111.64 111.64)
  reading atoms ...
  690 atoms
  reading velocities ...
  690 velocities
  scanning bonds ...
  scanning angles ...
  scanning dihedrals ...
  scanning impropers ...
  reading bonds ...
  755 bonds
  reading angles ...
  1304 angles
  reading dihedrals ...
  1992 dihedrals
  reading impropers ...
  204 impropers
################################################################################

min_style cg
minimize 1e-05 1e-05 10000 100000
PPPM initialization ...
  G vector (1/distance) = 0.0912007
  grid = 18 18 18
  stencil order = 5
  estimated absolute RMS force accuracy = 0.0345772
  estimated relative force accuracy = 0.000104128
  3d grid and FFT values/proc = 1960 648
  update every 1 steps, delay 0 steps, check yes
Step Temp E_pair E_mol TotEng Press
0     2136.944    229.94095    897.01618    5515.7659    17.774103
Loop time of 0.148939 on 16 procs for 14 steps with 690 atoms

Minimization stats:
  Stopping criterion = linesearch alpha is zero
  Energy initial, next-to-last, final =
  Force two-norm initial, final = 68.5445 45.4914
  Force max component initial, final = 9.02611 4.69393
  Final line search alpha, max atom move = 4.12747e-12 1.93741e-11
  Iterations, force evaluations = 14 87

timestep        1
fix             pysimm_md all nvt temp 300 300 100
run             5000
PPPM initialization ...
  G vector (1/distance) = 0.0912007
  grid = 18 18 18
  stencil order = 5
  estimated absolute RMS force accuracy = 0.0345772
  estimated relative force accuracy = 0.000104128
  3d grid and FFT values/proc = 1960 648
Step Temp E_pair E_mol TotEng Press
14     2136.944    227.52698    878.20832    5494.5441    18.682212
Loop time of 3.77561 on 16 procs for 5000 steps with 690 atoms

unfix pysimm_md
write_dump all custom pysimm.dump.tmp id q x y z vx vy vz
quit

################################################################################
##################################    Init    ##################################
################################################################################
units           real
atom_style      full
pair_style      lj/cut/coul/long 12.0  12.0
kspace_style    pppm 1e-4
bond_style      harmonic
angle_style     harmonic
dihedral_style  fourier
improper_style  cvff
special_bonds   amber
pair_modify     mix arithmetic
read_data       temp.lmps
  orthogonal box = (-119.01 -119.01 -119.01) to (119.01 119.01 119.01)
  reading atoms ...
  746 atoms
  reading velocities ...
  746 velocities
  scanning bonds ...
  scanning angles ...
  scanning dihedrals ...
  scanning impropers ...
  reading bonds ...
  816 bonds
  reading angles ...
  1412 angles
  reading dihedrals ...
  2152 dihedrals
  reading impropers ...
  220 impropers
################################################################################

min_style cg
minimize 1e-05 1e-05 10000 100000
PPPM initialization ...
  G vector (1/distance) = 0.0869117
  grid = 18 18 18
  stencil order = 5
  estimated absolute RMS force accuracy = 0.0359264
  estimated relative force accuracy = 0.000108191
  3d grid and FFT values/proc = 1960 648
  update every 1 steps, delay 0 steps, check yes
Step Temp E_pair E_mol TotEng Press
0    1474.6539    309.13627    1077.9365    4661.8417    11.202052
Loop time of 0.11925 on 16 procs for 8 steps with 746 atoms

Minimization stats:
  Stopping criterion = linesearch alpha is zero
  Energy initial, next-to-last, final =
  Force two-norm initial, final = 81.6924 55.215
  Force max component initial, final = 9.34157 6.25349
  Final line search alpha, max atom move = 2.47603e-12 1.54839e-11
  Iterations, force evaluations = 8 77

timestep        1
fix             pysimm_md all nvt temp 300 300 100
run             5000
PPPM initialization ...
  G vector (1/distance) = 0.0869117
  grid = 18 18 18
  stencil order = 5
  estimated absolute RMS force accuracy = 0.0359264
  estimated relative force accuracy = 0.000108191
  3d grid and FFT values/proc = 1960 648
Step Temp E_pair E_mol TotEng Press
8    1474.6539    308.30685    1064.3523    4647.4281    11.553422
Loop time of 4.02137 on 16 procs for 5000 steps with 746 atoms

unfix pysimm_md
write_dump all custom pysimm.dump.tmp id q x y z vx vy vz
quit

################################################################################
##################################    Init    ##################################
################################################################################
units           real
atom_style      full
pair_style      lj/cut/coul/long 12.0  12.0
kspace_style    pppm 1e-4
bond_style      harmonic
angle_style     harmonic
dihedral_style  fourier
improper_style  cvff
special_bonds   amber
pair_modify     mix arithmetic
read_data       temp.lmps
  orthogonal box = (-121.986 -121.986 -121.986) to (121.986 121.986 121.986)
  reading atoms ...
  802 atoms
  reading velocities ...
  802 velocities
  scanning bonds ...
  scanning angles ...
  scanning dihedrals ...
  scanning impropers ...
  reading bonds ...
  877 bonds
  reading angles ...
  1520 angles
  reading dihedrals ...
  2312 dihedrals
  reading impropers ...
  236 impropers
################################################################################

min_style cg
minimize 1e-05 1e-05 10000 100000
PPPM initialization ...
  G vector (1/distance) = 0.0923444
  grid = 20 20 20
  stencil order = 5
  estimated absolute RMS force accuracy = 0.0307995
  estimated relative force accuracy = 9.27519e-05
  3d grid and FFT values/proc = 2250 800
  update every 1 steps, delay 0 steps, check yes
Step Temp E_pair E_mol TotEng Press
0    1607.3375    280.37236    1140.7367    5258.8344    12.590341
Loop time of 0.181359 on 16 procs for 5 steps with 802 atoms

Minimization stats:
  Stopping criterion = linesearch alpha is zero
  Energy initial, next-to-last, final =
  Force two-norm initial, final = 69.3337 54.5097
  Force max component initial, final = 7.66366 5.74873
  Final line search alpha, max atom move = 2.98572e-12 1.71641e-11
  Iterations, force evaluations = 5 71

timestep        1
fix             pysimm_md all nvt temp 300 300 100
run             5000
PPPM initialization ...
  G vector (1/distance) = 0.0923444
  grid = 20 20 20
  stencil order = 5
  estimated absolute RMS force accuracy = 0.0307995
  estimated relative force accuracy = 9.27519e-05
  3d grid and FFT values/proc = 2250 800
Step Temp E_pair E_mol TotEng Press
5    1607.3375    277.76286    1135.8808     5251.369    12.860734
Loop time of 4.74103 on 16 procs for 5000 steps with 802 atoms

unfix pysimm_md
write_dump all custom pysimm.dump.tmp id q x y z vx vy vz
quit

################################################################################
##################################    Init    ##################################
################################################################################
units           real
atom_style      full
pair_style      lj/cut/coul/long 12.0  12.0
kspace_style    pppm 1e-4
bond_style      harmonic
angle_style     harmonic
dihedral_style  fourier
improper_style  cvff
special_bonds   amber
pair_modify     mix arithmetic
read_data       temp.lmps
  orthogonal box = (-124.824 -124.824 -124.824) to (124.824 124.824 124.824)
  reading atoms ...
  861 atoms
  reading velocities ...
  861 velocities
  scanning bonds ...
  scanning angles ...
  scanning dihedrals ...
  scanning impropers ...
  reading bonds ...
  942 bonds
  reading angles ...
  1630 angles
  reading dihedrals ...
  2486 dihedrals
  reading impropers ...
  254 impropers
################################################################################

min_style cg
minimize 1e-05 1e-05 10000 100000
PPPM initialization ...
  G vector (1/distance) = 0.0907754
  grid = 20 20 20
  stencil order = 5
  estimated absolute RMS force accuracy = 0.0326148
  estimated relative force accuracy = 9.82186e-05
  3d grid and FFT values/proc = 2250 800
  update every 1 steps, delay 0 steps, check yes
Step Temp E_pair E_mol TotEng Press
0    1786.5273    310.43297    1068.8248    5959.0144    13.118524
Loop time of 0.175458 on 16 procs for 13 steps with 861 atoms

Minimization stats:
  Stopping criterion = linesearch alpha is zero
  Energy initial, next-to-last, final =
  Force two-norm initial, final = 65.8761 44.3565
  Force max component initial, final = 12.1773 5.07742
  Final line search alpha, max atom move = 4.65077e-12 2.36139e-11
  Iterations, force evaluations = 13 85

timestep        1
fix             pysimm_md all nvt temp 300 300 100
run             5000
PPPM initialization ...
  G vector (1/distance) = 0.0907754
  grid = 20 20 20
  stencil order = 5
  estimated absolute RMS force accuracy = 0.0326148
  estimated relative force accuracy = 9.82186e-05
  3d grid and FFT values/proc = 2250 800
Step Temp E_pair E_mol TotEng Press
13    1786.5273    305.97185    1053.7494    5939.4779     13.57516
Loop time of 4.59165 on 16 procs for 5000 steps with 861 atoms

unfix pysimm_md
write_dump all custom pysimm.dump.tmp id q x y z vx vy vz
quit

################################################################################
##################################    Init    ##################################
################################################################################
units           real
atom_style      full
pair_style      lj/cut/coul/long 12.0  12.0
kspace_style    pppm 1e-4
bond_style      harmonic
angle_style     harmonic
dihedral_style  fourier
improper_style  cvff
special_bonds   amber
pair_modify     mix arithmetic
read_data       temp.lmps
  orthogonal box = (-127.539 -127.539 -127.539) to (127.539 127.539 127.539)
  reading atoms ...
  920 atoms
  reading velocities ...
  920 velocities
  scanning bonds ...
  scanning angles ...
  scanning dihedrals ...
  scanning impropers ...
  reading bonds ...
  1007 bonds
  reading angles ...
  1740 angles
  reading dihedrals ...
  2660 dihedrals
  reading impropers ...
  272 impropers
################################################################################

min_style cg
minimize 1e-05 1e-05 10000 100000
PPPM initialization ...
  G vector (1/distance) = 0.0893222
  grid = 20 20 20
  stencil order = 5
  estimated absolute RMS force accuracy = 0.0343349
  estimated relative force accuracy = 0.000103399
  3d grid and FFT values/proc = 2250 800
  update every 1 steps, delay 0 steps, check yes
Step Temp E_pair E_mol TotEng Press
0    1079.5868    310.32653    1175.2635    4442.9718     8.287776
Loop time of 0.191716 on 16 procs for 15 steps with 920 atoms

Minimization stats:
  Stopping criterion = linesearch alpha is zero
  Energy initial, next-to-last, final =
  Force two-norm initial, final = 70.1722 57.5394
  Force max component initial, final = 6.81079 7.57952
  Final line search alpha, max atom move = 2.30199e-12 1.7448e-11
  Iterations, force evaluations = 15 89

timestep        1
fix             pysimm_md all nvt temp 300 300 100
run             5000
PPPM initialization ...
  G vector (1/distance) = 0.0893222
  grid = 20 20 20
  stencil order = 5
  estimated absolute RMS force accuracy = 0.0343349
  estimated relative force accuracy = 0.000103399
  3d grid and FFT values/proc = 2250 800
Step Temp E_pair E_mol TotEng Press
15    1079.5868    300.63837    1155.0127    4413.0329    8.7529054
Loop time of 6.35712 on 16 procs for 5000 steps with 920 atoms

unfix pysimm_md
write_dump all custom pysimm.dump.tmp id q x y z vx vy vz
quit

################################################################################
##################################    Init    ##################################
################################################################################
units           real
atom_style      full
pair_style      lj/cut/coul/long 12.0  12.0
kspace_style    pppm 1e-4
bond_style      harmonic
angle_style     harmonic
dihedral_style  fourier
improper_style  cvff
special_bonds   amber
pair_modify     mix arithmetic
read_data       temp.lmps
  orthogonal box = (-130.142 -130.142 -130.142) to (130.142 130.142 130.142)
  reading atoms ...
  976 atoms
  reading velocities ...
  976 velocities
  scanning bonds ...
  scanning angles ...
  scanning dihedrals ...
  scanning impropers ...
  reading bonds ...
  1068 bonds
  reading angles ...
  1848 angles
  reading dihedrals ...
  2820 dihedrals
  reading impropers ...
  288 impropers
################################################################################

min_style cg
minimize 1e-05 1e-05 10000 100000
PPPM initialization ...
  G vector (1/distance) = 0.0879698
  grid = 20 20 20
  stencil order = 5
  estimated absolute RMS force accuracy = 0.0351135
  estimated relative force accuracy = 0.000105743
  3d grid and FFT values/proc = 2250 800
  update every 1 steps, delay 0 steps, check yes
Step Temp E_pair E_mol TotEng Press
0    3201.7374    362.96302    1255.1349    10923.275    24.612572
Loop time of 0.568417 on 16 procs for 71 steps with 976 atoms

Minimization stats:
  Stopping criterion = linesearch alpha is zero
  Energy initial, next-to-last, final =
  Force two-norm initial, final = 75.3241 45.31
  Force max component initial, final = 9.13247 4.80983
  Final line search alpha, max atom move = 3.7397e-12 1.79873e-11
  Iterations, force evaluations = 71 197

timestep        1
fix             pysimm_md all nvt temp 300 300 100
run             5000
PPPM initialization ...
  G vector (1/distance) = 0.0879698
  grid = 20 20 20
  stencil order = 5
  estimated absolute RMS force accuracy = 0.0351135
  estimated relative force accuracy = 0.000105743
  3d grid and FFT values/proc = 2250 800
Step Temp E_pair E_mol TotEng Press
71    3201.7374    338.19273    1139.4769    10782.846    24.243254
Loop time of 5.06414 on 16 procs for 5000 steps with 976 atoms

unfix pysimm_md
write_dump all custom pysimm.dump.tmp id q x y z vx vy vz
quit

################################################################################
##################################    Init    ##################################
################################################################################
units           real
atom_style      full
pair_style      lj/cut/coul/long 12.0  12.0
kspace_style    pppm 1e-4
bond_style      harmonic
angle_style     harmonic
dihedral_style  fourier
improper_style  cvff
special_bonds   amber
pair_modify     mix arithmetic
read_data       temp.lmps
  orthogonal box = (-132.646 -132.646 -132.646) to (132.646 132.646 132.646)
  reading atoms ...
  1041 atoms
  reading velocities ...
  1041 velocities
  scanning bonds ...
  scanning angles ...
  scanning dihedrals ...
  scanning impropers ...
  reading bonds ...
  1141 bonds
  reading angles ...
  1962 angles
  reading dihedrals ...
  3022 dihedrals
  reading impropers ...
  310 impropers
################################################################################

min_style cg
minimize 1e-05 1e-05 10000 100000
PPPM initialization ...
  G vector (1/distance) = 0.0992294
  grid = 24 24 24
  stencil order = 5
  estimated absolute RMS force accuracy = 0.0274259
  estimated relative force accuracy = 8.25924e-05
  3d grid and FFT values/proc = 3179 1152
  update every 1 steps, delay 0 steps, check yes
Step Temp E_pair E_mol TotEng Press
0    1506.0302    363.75184    1433.6244    6466.1339    11.929302
Loop time of 0.659933 on 16 procs for 69 steps with 1041 atoms

Minimization stats:
  Stopping criterion = linesearch alpha is zero
  Energy initial, next-to-last, final =
  Force two-norm initial, final = 86.6419 53.151
  Force max component initial, final = 9.20503 6.30937
  Final line search alpha, max atom move = 2.46166e-12 1.55316e-11
  Iterations, force evaluations = 69 197

timestep        1
fix             pysimm_md all nvt temp 300 300 100
run             5000
PPPM initialization ...
  G vector (1/distance) = 0.0992294
  grid = 24 24 24
  stencil order = 5
  estimated absolute RMS force accuracy = 0.0274259
  estimated relative force accuracy = 8.25924e-05
  3d grid and FFT values/proc = 3179 1152
Step Temp E_pair E_mol TotEng Press
69    1506.0302    333.45941    1331.0908    6333.3079    10.921997
Loop time of 5.99157 on 16 procs for 5000 steps with 1041 atoms

unfix pysimm_md
write_dump all custom pysimm.dump.tmp id q x y z vx vy vz
quit

################################################################################
##################################    Init    ##################################
################################################################################
units           real
atom_style      full
pair_style      lj/cut/coul/long 12.0  12.0
kspace_style    pppm 1e-4
bond_style      harmonic
angle_style     harmonic
dihedral_style  fourier
improper_style  cvff
special_bonds   amber
pair_modify     mix arithmetic
read_data       temp.lmps
  orthogonal box = (-135.058 -135.058 -135.058) to (135.058 135.058 135.058)
  reading atoms ...
  1088 atoms
  reading velocities ...
  1088 velocities
  scanning bonds ...
  scanning angles ...
  scanning dihedrals ...
  scanning impropers ...
  reading bonds ...
  1190 bonds
  reading angles ...
  2064 angles
  reading dihedrals ...
  3140 dihedrals
  reading impropers ...
  320 impropers
################################################################################

min_style cg
minimize 1e-05 1e-05 10000 100000
PPPM initialization ...
  G vector (1/distance) = 0.0979528
  grid = 24 24 24
  stencil order = 5
  estimated absolute RMS force accuracy = 0.0263302
  estimated relative force accuracy = 7.92926e-05
  3d grid and FFT values/proc = 3179 1152
  update every 1 steps, delay 0 steps, check yes
Step Temp E_pair E_mol TotEng Press
0    1998.4405    394.34389    1360.1207    8229.6926    14.913409
Loop time of 0.313347 on 16 procs for 28 steps with 1088 atoms

Minimization stats:
  Stopping criterion = linesearch alpha is zero
  Energy initial, next-to-last, final =
  Force two-norm initial, final = 79.5215 52.8328
  Force max component initial, final = 11.522 5.77145
  Final line search alpha, max atom move = 3.0296e-12 1.74852e-11
  Iterations, force evaluations = 28 115

timestep        1
fix             pysimm_md all nvt temp 300 300 100
run             5000
PPPM initialization ...
  G vector (1/distance) = 0.0979528
  grid = 24 24 24
  stencil order = 5
  estimated absolute RMS force accuracy = 0.0263302
  estimated relative force accuracy = 7.92926e-05
  3d grid and FFT values/proc = 3179 1152
Step Temp E_pair E_mol TotEng Press
28    1998.4405    386.30757    1323.9421    8185.4776     14.77578
Loop time of 6.06468 on 16 procs for 5000 steps with 1088 atoms

unfix pysimm_md
write_dump all custom pysimm.dump.tmp id q x y z vx vy vz
quit

################################################################################
##################################    Init    ##################################
################################################################################
units           real
atom_style      full
pair_style      lj/cut/coul/long 12.0  12.0
kspace_style    pppm 1e-4
bond_style      harmonic
angle_style     harmonic
dihedral_style  fourier
improper_style  cvff
special_bonds   amber
pair_modify     mix arithmetic
read_data       temp.lmps
  orthogonal box = (-132.364 -132.364 -132.364) to (132.364 132.364 132.364)
  reading atoms ...
  1141 atoms
  reading velocities ...
  1141 velocities
  scanning bonds ...
  scanning angles ...
  scanning dihedrals ...
  scanning impropers ...
  reading bonds ...
  1247 bonds
  reading angles ...
  2170 angles
  reading dihedrals ...
  3286 dihedrals
  reading impropers ...
  334 impropers
################################################################################

min_style cg
minimize 1e-05 1e-05 10000 100000
PPPM initialization ...
  G vector (1/distance) = 0.0993817
  grid = 24 24 24
  stencil order = 5
  estimated absolute RMS force accuracy = 0.0259265
  estimated relative force accuracy = 7.8077e-05
  3d grid and FFT values/proc = 3179 1152
  update every 1 steps, delay 0 steps, check yes
Step Temp E_pair E_mol TotEng Press
0    1432.5183    392.72736    1420.8122    6681.4136    12.147509
Loop time of 0.471864 on 16 procs for 64 steps with 1141 atoms

Minimization stats:
  Stopping criterion = linesearch alpha is zero
  Energy initial, next-to-last, final =
  Force two-norm initial, final = 78.1215 49.6035
  Force max component initial, final = 10.3416 6.51545
  Final line search alpha, max atom move = 4.58554e-12 2.98769e-11
  Iterations, force evaluations = 64 185

timestep        1
fix             pysimm_md all nvt temp 300 300 100
run             5000
PPPM initialization ...
  G vector (1/distance) = 0.0993817
  grid = 24 24 24
  stencil order = 5
  estimated absolute RMS force accuracy = 0.0259265
  estimated relative force accuracy = 7.8077e-05
  3d grid and FFT values/proc = 3179 1152
Step Temp E_pair E_mol TotEng Press
64    1432.5183    365.13672    1326.2183     6559.229    10.867986
Loop time of 5.68093 on 16 procs for 5000 steps with 1141 atoms

unfix pysimm_md
write_dump all custom pysimm.dump.tmp id q x y z vx vy vz
quit

################################################################################
##################################    Init    ##################################
################################################################################
units           real
atom_style      full
pair_style      lj/cut/coul/long 12.0  12.0
kspace_style    pppm 1e-4
bond_style      harmonic
angle_style     harmonic
dihedral_style  fourier
improper_style  cvff
special_bonds   amber
pair_modify     mix arithmetic
read_data       temp.lmps
  orthogonal box = (-139.64 -139.64 -139.64) to (139.64 139.64 139.64)
  reading atoms ...
  1206 atoms
  reading velocities ...
  1206 velocities
  scanning bonds ...
  scanning angles ...
  scanning dihedrals ...
  scanning impropers ...
  reading bonds ...
  1320 bonds
  reading angles ...
  2284 angles
  reading dihedrals ...
  3488 dihedrals
  reading impropers ...
  356 impropers
################################################################################

min_style cg
minimize 1e-05 1e-05 10000 100000
PPPM initialization ...
  G vector (1/distance) = 0.0956073
  grid = 24 24 24
  stencil order = 5
  estimated absolute RMS force accuracy = 0.0287633
  estimated relative force accuracy = 8.66198e-05
  3d grid and FFT values/proc = 3179 1152
  update every 1 steps, delay 0 steps, check yes
Step Temp E_pair E_mol TotEng Press
0    611.30714    327.57866    1474.0984    3997.4166    4.1348064
Loop time of 0.447631 on 16 procs for 15 steps with 1206 atoms

Minimization stats:
  Stopping criterion = linesearch alpha is zero
  Energy initial, next-to-last, final =
  Force two-norm initial, final = 61.531 47.2156
  Force max component initial, final = 6.02983 6.20698
  Final line search alpha, max atom move = 3.69628e-12 2.29427e-11
  Iterations, force evaluations = 15 89

timestep        1
fix             pysimm_md all nvt temp 300 300 100
run             5000
PPPM initialization ...
  G vector (1/distance) = 0.0956073
  grid = 24 24 24
  stencil order = 5
  estimated absolute RMS force accuracy = 0.0287633
  estimated relative force accuracy = 8.66198e-05
  3d grid and FFT values/proc = 3179 1152
Step Temp E_pair E_mol TotEng Press
15    611.30714    329.06935    1456.6375    3981.4463    4.4361882
Loop time of 8.24878 on 16 procs for 5000 steps with 1206 atoms

unfix pysimm_md
write_dump all custom pysimm.dump.tmp id q x y z vx vy vz
quit

################################################################################
##################################    Init    ##################################
################################################################################
units           real
atom_style      full
pair_style      lj/cut/coul/long 12.0  12.0
kspace_style    pppm 1e-4
bond_style      harmonic
angle_style     harmonic
dihedral_style  fourier
improper_style  cvff
special_bonds   amber
pair_modify     mix arithmetic
read_data       temp.lmps
  orthogonal box = (-136.637 -136.637 -136.637) to (136.637 136.637 136.637)
  reading atoms ...
  1262 atoms
  reading velocities ...
  1262 velocities
  scanning bonds ...
  scanning angles ...
  scanning dihedrals ...
  scanning impropers ...
  reading bonds ...
  1381 bonds
  reading angles ...
  2392 angles
  reading dihedrals ...
  3648 dihedrals
  reading impropers ...
  372 impropers
################################################################################

min_style cg
minimize 1e-05 1e-05 10000 100000
PPPM initialization ...
  G vector (1/distance) = 0.0971305
  grid = 24 24 24
  stencil order = 5
  estimated absolute RMS force accuracy = 0.0288943
  estimated relative force accuracy = 8.70143e-05
  3d grid and FFT values/proc = 3179 1152
  update every 1 steps, delay 0 steps, check yes
Step Temp E_pair E_mol TotEng Press
0    801.40853    384.26327    1522.4059    4919.0048    6.9956923
Loop time of 0.40537 on 16 procs for 29 steps with 1262 atoms

Minimization stats:
  Stopping criterion = linesearch alpha is zero
  Energy initial, next-to-last, final =
  Force two-norm initial, final = 61.5236 46.0091
  Force max component initial, final = 6.21856 5.83565
  Final line search alpha, max atom move = 2.98224e-12 1.74033e-11
  Iterations, force evaluations = 29 117

timestep        1
fix             pysimm_md all nvt temp 300 300 100
run             5000
PPPM initialization ...
  G vector (1/distance) = 0.0971305
  grid = 24 24 24
  stencil order = 5
  estimated absolute RMS force accuracy = 0.0288943
  estimated relative force accuracy = 8.70143e-05
  3d grid and FFT values/proc = 3179 1152
Step Temp E_pair E_mol TotEng Press
29    801.40853    377.82683    1493.9191    4884.0815    6.8956415
Loop time of 7.6096 on 16 procs for 5000 steps with 1262 atoms

unfix pysimm_md
write_dump all custom pysimm.dump.tmp id q x y z vx vy vz
quit

################################################################################
##################################    Init    ##################################
################################################################################
units           real
atom_style      full
pair_style      lj/cut/coul/long 12.0  12.0
kspace_style    pppm 1e-4
bond_style      harmonic
angle_style     harmonic
dihedral_style  fourier
improper_style  cvff
special_bonds   amber
pair_modify     mix arithmetic
read_data       temp.lmps
  orthogonal box = (-143.939 -143.939 -143.939) to (143.939 143.939 143.939)
  reading atoms ...
  1315 atoms
  reading velocities ...
  1315 velocities
  scanning bonds ...
  scanning angles ...
  scanning dihedrals ...
  scanning impropers ...
  reading bonds ...
  1438 bonds
  reading angles ...
  2498 angles
  reading dihedrals ...
  3794 dihedrals
  reading impropers ...
  386 impropers
################################################################################

min_style cg
minimize 1e-05 1e-05 10000 100000
PPPM initialization ...
  G vector (1/distance) = 0.0935037
  grid = 24 24 24
  stencil order = 5
  estimated absolute RMS force accuracy = 0.0293906
  estimated relative force accuracy = 8.85088e-05
  3d grid and FFT values/proc = 3179 1152
  update every 1 steps, delay 0 steps, check yes
Step Temp E_pair E_mol TotEng Press
0    1509.7359    458.02647    1752.3845    8123.7209    11.362306
Loop time of 0.471776 on 16 procs for 34 steps with 1315 atoms

Minimization stats:
  Stopping criterion = linesearch alpha is zero
  Energy initial, next-to-last, final =
  Force two-norm initial, final = 88.062 63.0906
  Force max component initial, final = 13.0518 8.60245
  Final line search alpha, max atom move = 2.3249e-12 1.99999e-11
  Iterations, force evaluations = 34 127

timestep        1
fix             pysimm_md all nvt temp 300 300 100
run             5000
PPPM initialization ...
  G vector (1/distance) = 0.0935037
  grid = 24 24 24
  stencil order = 5
  estimated absolute RMS force accuracy = 0.0293906
  estimated relative force accuracy = 8.85088e-05
  3d grid and FFT values/proc = 3179 1152
Step Temp E_pair E_mol TotEng Press
34    1509.7359    453.49945    1678.1997     8045.009    11.776072
Loop time of 8.52905 on 16 procs for 5000 steps with 1315 atoms

unfix pysimm_md
write_dump all custom pysimm.dump.tmp id q x y z vx vy vz
quit

################################################################################
##################################    Init    ##################################
################################################################################
units           real
atom_style      full
pair_style      lj/cut/coul/long 12.0  12.0
kspace_style    pppm 1e-4
bond_style      harmonic
angle_style     harmonic
dihedral_style  fourier
improper_style  cvff
special_bonds   amber
pair_modify     mix arithmetic
read_data       temp.lmps
  orthogonal box = (-140.658 -140.658 -140.658) to (140.658 140.658 140.658)
  reading atoms ...
  1368 atoms
  reading velocities ...
  1368 velocities
  scanning bonds ...
  scanning angles ...
  scanning dihedrals ...
  scanning impropers ...
  reading bonds ...
  1495 bonds
  reading angles ...
  2604 angles
  reading dihedrals ...
  3940 dihedrals
  reading impropers ...
  400 impropers
################################################################################

min_style cg
minimize 1e-05 1e-05 10000 100000
PPPM initialization ...
  G vector (1/distance) = 0.0951007
  grid = 24 24 24
  stencil order = 5
  estimated absolute RMS force accuracy = 0.029015
  estimated relative force accuracy = 8.7378e-05
  3d grid and FFT values/proc = 3179 1152
  update every 1 steps, delay 0 steps, check yes
Step Temp E_pair E_mol TotEng Press
0    1679.1171    497.79909     1794.015    9133.8256    13.908361
Loop time of 0.491977 on 16 procs for 44 steps with 1368 atoms

Minimization stats:
  Stopping criterion = linesearch alpha is zero
  Energy initial, next-to-last, final =
  Force two-norm initial, final = 95.732 46.5659
  Force max component initial, final = 9.43312 5.25674
  Final line search alpha, max atom move = 2.96572e-12 1.559e-11
  Iterations, force evaluations = 44 148

timestep        1
fix             pysimm_md all nvt temp 300 300 100
run             5000
PPPM initialization ...
  G vector (1/distance) = 0.0951007
  grid = 24 24 24
  stencil order = 5
  estimated absolute RMS force accuracy = 0.029015
  estimated relative force accuracy = 8.7378e-05
  3d grid and FFT values/proc = 3179 1152
Step Temp E_pair E_mol TotEng Press
44    1679.1171    479.44167    1712.5603    9034.0134    14.033204
Loop time of 7.21624 on 16 procs for 5000 steps with 1368 atoms

unfix pysimm_md
write_dump all custom pysimm.dump.tmp id q x y z vx vy vz
quit

################################################################################
##################################    Init    ##################################
################################################################################
units           real
atom_style      full
pair_style      lj/cut/coul/long 12.0  12.0
kspace_style    pppm 1e-4
bond_style      harmonic
angle_style     harmonic
dihedral_style  fourier
improper_style  cvff
special_bonds   amber
pair_modify     mix arithmetic
read_data       temp.lmps
  orthogonal box = (-147.996 -147.996 -147.996) to (147.996 147.996 147.996)
  reading atoms ...
  1433 atoms
  reading velocities ...
  1433 velocities
  scanning bonds ...
  scanning angles ...
  scanning dihedrals ...
  scanning impropers ...
  reading bonds ...
  1568 bonds
  reading angles ...
  2718 angles
  reading dihedrals ...
  4142 dihedrals
  reading impropers ...
  422 impropers
################################################################################

min_style cg
minimize 1e-05 1e-05 10000 100000
PPPM initialization ...
  G vector (1/distance) = 0.0915954
  grid = 24 24 24
  stencil order = 5
  estimated absolute RMS force accuracy = 0.0315675
  estimated relative force accuracy = 9.50645e-05
  3d grid and FFT values/proc = 3179 1152
  update every 1 steps, delay 0 steps, check yes
Step Temp E_pair E_mol TotEng Press
0    1226.7939    520.42615    1732.8023    7489.8228    9.4427813
Loop time of 0.658777 on 16 procs for 60 steps with 1433 atoms

Minimization stats:
  Stopping criterion = linesearch alpha is zero
  Energy initial, next-to-last, final =
  Force two-norm initial, final = 95.7217 44.2913
  Force max component initial, final = 16.3651 5.25982
  Final line search alpha, max atom move = 3.587e-12 1.8867e-11
  Iterations, force evaluations = 60 179

timestep        1
fix             pysimm_md all nvt temp 300 300 100
run             5000
PPPM initialization ...
  G vector (1/distance) = 0.0915954
  grid = 24 24 24
  stencil order = 5
  estimated absolute RMS force accuracy = 0.0315675
  estimated relative force accuracy = 9.50645e-05
  3d grid and FFT values/proc = 3179 1152
Step Temp E_pair E_mol TotEng Press
60    1226.7939     484.1461    1604.6803    7325.4208    9.0435929
Loop time of 6.68546 on 16 procs for 5000 steps with 1433 atoms

unfix pysimm_md
write_dump all custom pysimm.dump.tmp id q x y z vx vy vz
quit

################################################################################
##################################    Init    ##################################
################################################################################
units           real
atom_style      full
pair_style      lj/cut/coul/long 12.0  12.0
kspace_style    pppm 1e-4
bond_style      harmonic
angle_style     harmonic
dihedral_style  fourier
improper_style  cvff
special_bonds   amber
pair_modify     mix arithmetic
read_data       temp.lmps
  orthogonal box = (-149.943 -149.943 -149.943) to (149.943 149.943 149.943)
  reading atoms ...
  1498 atoms
  reading velocities ...
  1498 velocities
  scanning bonds ...
  scanning angles ...
  scanning dihedrals ...
  scanning impropers ...
  reading bonds ...
  1641 bonds
  reading angles ...
  2832 angles
  reading dihedrals ...
  4344 dihedrals
  reading impropers ...
  444 impropers
################################################################################

min_style cg
minimize 1e-05 1e-05 10000 100000
PPPM initialization ...
  G vector (1/distance) = 0.0907055
  grid = 24 24 24
  stencil order = 5
  estimated absolute RMS force accuracy = 0.0336457
  estimated relative force accuracy = 0.000101323
  3d grid and FFT values/proc = 3179 1152
  update every 1 steps, delay 0 steps, check yes
Step Temp E_pair E_mol TotEng Press
0    744.96219    507.82744    1919.1371    5751.1889    6.5657496
Loop time of 0.534352 on 16 procs for 13 steps with 1498 atoms

Minimization stats:
  Stopping criterion = linesearch alpha is zero
  Energy initial, next-to-last, final =
  Force two-norm initial, final = 87.2515 59.7553
  Force max component initial, final = 9.09037 6.31076
  Final line search alpha, max atom move = 2.3246e-12 1.467e-11
  Iterations, force evaluations = 13 87

timestep        1
fix             pysimm_md all nvt temp 300 300 100
run             5000
PPPM initialization ...
  G vector (1/distance) = 0.0907055
  grid = 24 24 24
  stencil order = 5
  estimated absolute RMS force accuracy = 0.0336457
  estimated relative force accuracy = 0.000101323
  3d grid and FFT values/proc = 3179 1152
Step Temp E_pair E_mol TotEng Press
13    744.96219    505.40458    1895.5121    5725.1411    6.6354208
Loop time of 11.8314 on 16 procs for 5000 steps with 1498 atoms

unfix pysimm_md
write_dump all custom pysimm.dump.tmp id q x y z vx vy vz
quit

################################################################################
##################################    Init    ##################################
################################################################################
units           real
atom_style      full
pair_style      lj/cut/coul/long 12.0  12.0
kspace_style    pppm 1e-4
bond_style      harmonic
angle_style     harmonic
dihedral_style  fourier
improper_style  cvff
special_bonds   amber
pair_modify     mix arithmetic
read_data       temp.lmps
  orthogonal box = (-151.841 -151.841 -151.841) to (151.841 151.841 151.841)
  reading atoms ...
  1566 atoms
  reading velocities ...
  1566 velocities
  scanning bonds ...
  scanning angles ...
  scanning dihedrals ...
  scanning impropers ...
  reading bonds ...
  1718 bonds
  reading angles ...
  2948 angles
  reading dihedrals ...
  4560 dihedrals
  reading impropers ...
  468 impropers
################################################################################

min_style cg
minimize 1e-05 1e-05 10000 100000
PPPM initialization ...
  G vector (1/distance) = 0.0926323
  grid = 25 25 25
  stencil order = 5
  estimated absolute RMS force accuracy = 0.0336179
  estimated relative force accuracy = 0.000101239
  3d grid and FFT values/proc = 3888 1250
  update every 1 steps, delay 0 steps, check yes
Step Temp E_pair E_mol TotEng Press
0    2285.0556    515.75179     1924.976    13100.438    16.921949
Loop time of 0.33239 on 16 procs for 7 steps with 1566 atoms

Minimization stats:
  Stopping criterion = linesearch alpha is zero
  Energy initial, next-to-last, final =
  Force two-norm initial, final = 84.7558 57.7759
  Force max component initial, final = 11.0453 8.47955
  Final line search alpha, max atom move = 3.22276e-12 2.73276e-11
  Iterations, force evaluations = 7 75

timestep        1
fix             pysimm_md all nvt temp 300 300 100
run             5000
PPPM initialization ...
  G vector (1/distance) = 0.0926323
  grid = 25 25 25
  stencil order = 5
  estimated absolute RMS force accuracy = 0.0336179
  estimated relative force accuracy = 0.000101239
  3d grid and FFT values/proc = 3888 1250
Step Temp E_pair E_mol TotEng Press
7    2285.0556    512.82979    1915.1528    13087.693     16.96392
Loop time of 8.23057 on 16 procs for 5000 steps with 1566 atoms

unfix pysimm_md
write_dump all custom pysimm.dump.tmp id q x y z vx vy vz
quit

################################################################################
##################################    Init    ##################################
################################################################################
units           real
atom_style      full
pair_style      lj/cut/coul/long 12.0  12.0
kspace_style    pppm 1e-4
bond_style      harmonic
angle_style     harmonic
dihedral_style  fourier
improper_style  cvff
special_bonds   amber
pair_modify     mix arithmetic
read_data       temp.lmps
  orthogonal box = (-148.074 -148.074 -148.074) to (148.074 148.074 148.074)
  reading atoms ...
  1598 atoms
  reading velocities ...
  1598 velocities
  scanning bonds ...
  scanning angles ...
  scanning dihedrals ...
  scanning impropers ...
  reading bonds ...
  1747 bonds
  reading angles ...
  3040 angles
  reading dihedrals ...
  4608 dihedrals
  reading impropers ...
  468 impropers
################################################################################

min_style cg
minimize 1e-05 1e-05 10000 100000
PPPM initialization ...
  G vector (1/distance) = 0.0915586
  grid = 24 24 24
  stencil order = 5
  estimated absolute RMS force accuracy = 0.0322468
  estimated relative force accuracy = 9.71102e-05
  3d grid and FFT values/proc = 3179 1152
  update every 1 steps, delay 0 steps, check yes
Step Temp E_pair E_mol TotEng Press
0    572.29569    541.65503      1867.53    5133.5148     4.852926
Loop time of 0.531264 on 16 procs for 42 steps with 1598 atoms

Minimization stats:
  Stopping criterion = linesearch alpha is zero
  Energy initial, next-to-last, final =
  Force two-norm initial, final = 83.6653 59.4392
  Force max component initial, final = 9.10714 6.88087
  Final line search alpha, max atom move = 3.15519e-12 2.17105e-11
  Iterations, force evaluations = 42 141

timestep        1
fix             pysimm_md all nvt temp 300 300 100
run             5000
PPPM initialization ...
  G vector (1/distance) = 0.0915586
  grid = 24 24 24
  stencil order = 5
  estimated absolute RMS force accuracy = 0.0322468
  estimated relative force accuracy = 9.71102e-05
  3d grid and FFT values/proc = 3179 1152
Step Temp E_pair E_mol TotEng Press
42    572.29569    524.85973    1803.2664     5052.456    4.3392922
Loop time of 7.82079 on 16 procs for 5000 steps with 1598 atoms

unfix pysimm_md
write_dump all custom pysimm.dump.tmp id q x y z vx vy vz
quit

################################################################################
##################################    Init    ##################################
################################################################################
units           real
atom_style      full
pair_style      lj/cut/coul/long 12.0  12.0
kspace_style    pppm 1e-4
bond_style      harmonic
angle_style     harmonic
dihedral_style  fourier
improper_style  cvff
special_bonds   amber
pair_modify     mix arithmetic
read_data       temp.lmps
  orthogonal box = (-149.816 -149.816 -149.816) to (149.816 149.816 149.816)
  reading atoms ...
  1657 atoms
  reading velocities ...
  1657 velocities
  scanning bonds ...
  scanning angles ...
  scanning dihedrals ...
  scanning impropers ...
  reading bonds ...
  1812 bonds
  reading angles ...
  3150 angles
  reading dihedrals ...
  4782 dihedrals
  reading impropers ...
  486 impropers
################################################################################

min_style cg
minimize 1e-05 1e-05 10000 100000
PPPM initialization ...
  G vector (1/distance) = 0.0907628
  grid = 24 24 24
  stencil order = 5
  estimated absolute RMS force accuracy = 0.0332461
  estimated relative force accuracy = 0.00010012
  3d grid and FFT values/proc = 3179 1152
  update every 1 steps, delay 0 steps, check yes
Step Temp E_pair E_mol TotEng Press
0    919.26581    1040.2554    3444.1769    9022.1319    6.3775018
Loop time of 0.431176 on 16 procs for 17 steps with 1657 atoms

Minimization stats:
  Stopping criterion = linesearch alpha is zero
  Energy initial, next-to-last, final =
  Force two-norm initial, final = 167.235 65.7068
  Force max component initial, final = 51.2623 28.629
  Final line search alpha, max atom move = 2.63561e-12 7.54548e-11
  Iterations, force evaluations = 17 95

timestep        1
fix             pysimm_md all nvt temp 300 300 100
run             5000
PPPM initialization ...
  G vector (1/distance) = 0.0907628
  grid = 24 24 24
  stencil order = 5
  estimated absolute RMS force accuracy = 0.0332461
  estimated relative force accuracy = 0.00010012
  3d grid and FFT values/proc = 3179 1152
Loop time of 8.79236 on 16 procs for 5000 steps with 1657 atoms

unfix pysimm_md
write_dump all custom pysimm.dump.tmp id q x y z vx vy vz
quit

################################################################################
##################################    Init    ##################################
################################################################################
units           real
atom_style      full
pair_style      lj/cut/coul/long 12.0  12.0
kspace_style    pppm 1e-4
bond_style      harmonic
angle_style     harmonic
dihedral_style  fourier
improper_style  cvff
special_bonds   amber
pair_modify     mix arithmetic
read_data       temp.lmps
  orthogonal box = (-151.519 -151.519 -151.519) to (151.519 151.519 151.519)
  reading atoms ...
  1716 atoms
  reading velocities ...
  1716 velocities
  scanning bonds ...
  scanning angles ...
  scanning dihedrals ...
  scanning impropers ...
  reading bonds ...
  1877 bonds
  reading angles ...
  3260 angles
  reading dihedrals ...
  4956 dihedrals
  reading impropers ...
  504 impropers
################################################################################

min_style cg
minimize 1e-05 1e-05 10000 100000
PPPM initialization ...
  G vector (1/distance) = 0.0899979
  grid = 24 24 24
  stencil order = 5
  estimated absolute RMS force accuracy = 0.0342179
  estimated relative force accuracy = 0.000103046
  3d grid and FFT values/proc = 3179 1152
  update every 1 steps, delay 0 steps, check yes
Loop time of 0.449977 on 16 procs for 22 steps with 1716 atoms

Minimization stats:
  Stopping criterion = linesearch alpha is zero
  Energy initial, next-to-last, final =
  Force two-norm initial, final = 82.5144 54.7421
  Force max component initial, final = 10.1275 6.2088
  Final line search alpha, max atom move = 2.30926e-12 1.43378e-11
  Iterations, force evaluations = 22 105

timestep        1
fix             pysimm_md all nvt temp 300 300 100
run             5000
PPPM initialization ...
  G vector (1/distance) = 0.0899979
  grid = 24 24 24
  stencil order = 5
  estimated absolute RMS force accuracy = 0.0342179
  estimated relative force accuracy = 0.000103046
  3d grid and FFT values/proc = 3179 1152
Loop time of 9.2957 on 16 procs for 5000 steps with 1716 atoms

unfix pysimm_md
write_dump all custom pysimm.dump.tmp id q x y z vx vy vz
quit

################################################################################
##################################    Init    ##################################
################################################################################
units           real
atom_style      full
pair_style      lj/cut/coul/long 12.0  12.0
kspace_style    pppm 1e-4
bond_style      harmonic
angle_style     harmonic
dihedral_style  fourier
improper_style  cvff
special_bonds   amber
pair_modify     mix arithmetic
read_data       temp.lmps
  orthogonal box = (-153.184 -153.184 -153.184) to (153.184 153.184 153.184)
  reading atoms ...
  1769 atoms
  reading velocities ...
  1769 velocities
  scanning bonds ...
  scanning angles ...
  scanning dihedrals ...
  scanning impropers ...
  reading bonds ...
  1934 bonds
  reading angles ...
  3366 angles
  reading dihedrals ...
  5102 dihedrals
  reading impropers ...
  518 impropers
################################################################################

min_style cg
minimize 1e-05 1e-05 10000 100000
PPPM initialization ...
  G vector (1/distance) = 0.0892617
  grid = 24 24 24
  stencil order = 5
  estimated absolute RMS force accuracy = 0.0341991
  estimated relative force accuracy = 0.000102989
  3d grid and FFT values/proc = 3179 1152
  update every 1 steps, delay 0 steps, check yes
Loop time of 0.454868 on 16 procs for 21 steps with 1769 atoms

Minimization stats:
  Stopping criterion = linesearch alpha is zero
  Energy initial, next-to-last, final =
  Force two-norm initial, final = 97.5093 70.3935
  Force max component initial, final = 11.7541 7.25351
  Final line search alpha, max atom move = 1.91602e-12 1.38979e-11
  Iterations, force evaluations = 21 101

timestep        1
fix             pysimm_md all nvt temp 300 300 100
run             5000
PPPM initialization ...
  G vector (1/distance) = 0.0892617
  grid = 24 24 24
  stencil order = 5
  estimated absolute RMS force accuracy = 0.0341991
  estimated relative force accuracy = 0.000102989
  3d grid and FFT values/proc = 3179 1152
Loop time of 7.03268 on 16 procs for 5000 steps with 1769 atoms

unfix pysimm_md
write_dump all custom pysimm.dump.tmp id q x y z vx vy vz
quit

################################################################################
##################################    Init    ##################################
################################################################################
units           real
atom_style      full
pair_style      lj/cut/coul/long 12.0  12.0
kspace_style    pppm 1e-4
bond_style      harmonic
angle_style     harmonic
dihedral_style  fourier
improper_style  cvff
special_bonds   amber
pair_modify     mix arithmetic
read_data       temp.lmps
  orthogonal box = (-154.814 -154.814 -154.814) to (154.814 154.814 154.814)
  reading atoms ...
  1849 atoms
  reading velocities ...
  1849 velocities
  scanning bonds ...
  scanning angles ...
  scanning dihedrals ...
  scanning impropers ...
  reading bonds ...
  2027 bonds
  reading angles ...
  3490 angles
  reading dihedrals ...
  5374 dihedrals
  reading impropers ...
  550 impropers
################################################################################

min_style cg
minimize 1e-05 1e-05 10000 100000
PPPM initialization ...
  G vector (1/distance) = 0.0913069
  grid = 25 25 25
  stencil order = 5
  estimated absolute RMS force accuracy = 0.0357987
  estimated relative force accuracy = 0.000107807
  3d grid and FFT values/proc = 3888 1250
  update every 1 steps, delay 0 steps, check yes
Loop time of 0.779053 on 16 procs for 43 steps with 1849 atoms

Minimization stats:
  Stopping criterion = linesearch alpha is zero
  Energy initial, next-to-last, final =
  Force two-norm initial, final = 103.46 73.9892
  Force max component initial, final = 14.917 7.94529
  Final line search alpha, max atom move = 2.04691e-12 1.62633e-11
  Iterations, force evaluations = 43 145

timestep        1
fix             pysimm_md all nvt temp 300 300 100
run             5000
PPPM initialization ...
  G vector (1/distance) = 0.0913069
  grid = 25 25 25
  stencil order = 5
  estimated absolute RMS force accuracy = 0.0357987
  estimated relative force accuracy = 0.000107807
  3d grid and FFT values/proc = 3888 1250
Loop time of 12.5492 on 16 procs for 5000 steps with 1849 atoms

unfix pysimm_md
write_dump all custom pysimm.dump.tmp id q x y z vx vy vz
quit

################################################################################
##################################    Init    ##################################
################################################################################
units           real
atom_style      full
pair_style      lj/cut/coul/long 12.0  12.0
kspace_style    pppm 1e-4
bond_style      harmonic
angle_style     harmonic
dihedral_style  fourier
improper_style  cvff
special_bonds   amber
pair_modify     mix arithmetic
read_data       temp.lmps
  orthogonal box = (-156.41 -156.41 -156.41) to (156.41 156.41 156.41)
  reading atoms ...
  1905 atoms
  reading velocities ...
  1905 velocities
  scanning bonds ...
  scanning angles ...
  scanning dihedrals ...
  scanning impropers ...
  reading bonds ...
  2088 bonds
  reading angles ...
  3598 angles
  reading dihedrals ...
  5534 dihedrals
  reading impropers ...
  566 impropers
################################################################################

min_style cg
minimize 1e-05 1e-05 10000 100000
PPPM initialization ...
  G vector (1/distance) = 0.0959108
  grid = 27 27 27
  stencil order = 5
  estimated absolute RMS force accuracy = 0.0313973
  estimated relative force accuracy = 9.45519e-05
  3d grid and FFT values/proc = 4332 1458
  update every 1 steps, delay 0 steps, check yes
Loop time of 0.529872 on 16 procs for 34 steps with 1905 atoms

Minimization stats:
  Stopping criterion = linesearch alpha is zero
  Energy initial, next-to-last, final =
  Force two-norm initial, final = 98.9282 69.108
  Force max component initial, final = 18.7433 7.68797
  Final line search alpha, max atom move = 2.10913e-12 1.62149e-11
  Iterations, force evaluations = 34 127

timestep        1
fix             pysimm_md all nvt temp 300 300 100
run             5000
PPPM initialization ...
  G vector (1/distance) = 0.0959108
  grid = 27 27 27
  stencil order = 5
  estimated absolute RMS force accuracy = 0.0313973
  estimated relative force accuracy = 9.45519e-05
  3d grid and FFT values/proc = 4332 1458
Loop time of 10.5209 on 16 procs for 5000 steps with 1905 atoms

unfix pysimm_md
write_dump all custom pysimm.dump.tmp id q x y z vx vy vz
quit

################################################################################
##################################    Init    ##################################
################################################################################
units           real
atom_style      full
pair_style      lj/cut/coul/long 12.0  12.0
kspace_style    pppm 1e-4
bond_style      harmonic
angle_style     harmonic
dihedral_style  fourier
improper_style  cvff
special_bonds   amber
pair_modify     mix arithmetic
read_data       temp.lmps
  orthogonal box = (-163.969 -163.969 -163.969) to (163.969 163.969 163.969)
  reading atoms ...
  1961 atoms
  reading velocities ...
  1961 velocities
  scanning bonds ...
  scanning angles ...
  scanning dihedrals ...
  scanning impropers ...
  reading bonds ...
  2149 bonds
  reading angles ...
  3706 angles
  reading dihedrals ...
  5694 dihedrals
  reading impropers ...
  582 impropers
################################################################################

min_style cg
minimize 1e-05 1e-05 10000 100000
PPPM initialization ...
  G vector (1/distance) = 0.0926407
  grid = 27 27 27
  stencil order = 5
  estimated absolute RMS force accuracy = 0.0322314
  estimated relative force accuracy = 9.70638e-05
  3d grid and FFT values/proc = 4332 1458
  update every 1 steps, delay 0 steps, check yes
Loop time of 1.20123 on 16 procs for 84 steps with 1961 atoms

Minimization stats:
  Stopping criterion = linesearch alpha is zero
  Energy initial, next-to-last, final =
  Force two-norm initial, final = 130.018 93.1305
  Force max component initial, final = 55.7513 31.6347
  Final line search alpha, max atom move = 7.89241e-13 2.49674e-11
  Iterations, force evaluations = 84 228

timestep        1
fix             pysimm_md all nvt temp 300 300 100
run             5000
PPPM initialization ...
  G vector (1/distance) = 0.0926407
  grid = 27 27 27
  stencil order = 5
  estimated absolute RMS force accuracy = 0.0322314
  estimated relative force accuracy = 9.70638e-05
  3d grid and FFT values/proc = 4332 1458
Loop time of 12.8149 on 16 procs for 5000 steps with 1961 atoms

unfix pysimm_md
write_dump all custom pysimm.dump.tmp id q x y z vx vy vz
quit

################################################################################
##################################    Init    ##################################
################################################################################
units           real
atom_style      full
pair_style      lj/cut/coul/long 12.0  12.0
kspace_style    pppm 1e-4
bond_style      harmonic
angle_style     harmonic
dihedral_style  fourier
improper_style  cvff
special_bonds   amber
pair_modify     mix arithmetic
read_data       temp.lmps
  orthogonal box = (-165.561 -165.561 -165.561) to (165.561 165.561 165.561)
  reading atoms ...
  2026 atoms
  reading velocities ...
  2026 velocities
  scanning bonds ...
  scanning angles ...
  scanning dihedrals ...
  scanning impropers ...
  reading bonds ...
  2222 bonds
  reading angles ...
  3820 angles
  reading dihedrals ...
  5896 dihedrals
  reading impropers ...
  604 impropers
################################################################################

min_style cg
minimize 1e-05 1e-05 10000 100000
PPPM initialization ...
  G vector (1/distance) = 0.0919786
  grid = 27 27 27
  stencil order = 5
  estimated absolute RMS force accuracy = 0.0337121
  estimated relative force accuracy = 0.000101523
  3d grid and FFT values/proc = 4332 1458
  update every 1 steps, delay 0 steps, check yes
Loop time of 0.975622 on 16 procs for 66 steps with 2026 atoms

Minimization stats:
  Stopping criterion = linesearch alpha is zero
  Energy initial, next-to-last, final =
  Force two-norm initial, final = 157.947 91.9281
  Force max component initial, final = 62.2381 26.6251
  Final line search alpha, max atom move = 1.32215e-12 3.52024e-11
  Iterations, force evaluations = 66 191

timestep        1
fix             pysimm_md all nvt temp 300 300 100
run             5000
PPPM initialization ...
  G vector (1/distance) = 0.0919786
  grid = 27 27 27
  stencil order = 5
  estimated absolute RMS force accuracy = 0.0337121
  estimated relative force accuracy = 0.000101523
  3d grid and FFT values/proc = 4332 1458
Loop time of 10.2233 on 16 procs for 5000 steps with 2026 atoms

unfix pysimm_md
write_dump all custom pysimm.dump.tmp id q x y z vx vy vz
quit

################################################################################
##################################    Init    ##################################
################################################################################
units           real
atom_style      full
pair_style      lj/cut/coul/long 12.0  12.0
kspace_style    pppm 1e-4
bond_style      harmonic
angle_style     harmonic
dihedral_style  fourier
improper_style  cvff
special_bonds   amber
pair_modify     mix arithmetic
read_data       temp.lmps
  orthogonal box = (-161.013 -161.013 -161.013) to (161.013 161.013 161.013)
  reading atoms ...
  2061 atoms
  reading velocities ...
  2061 velocities
  scanning bonds ...
  scanning angles ...
  scanning dihedrals ...
  scanning impropers ...
  reading bonds ...
  2255 bonds
  reading angles ...
  3914 angles
  reading dihedrals ...
  5958 dihedrals
  reading impropers ...
  606 impropers
################################################################################

min_style cg
minimize 1e-05 1e-05 10000 100000
PPPM initialization ...
  G vector (1/distance) = 0.0886566
  grid = 25 25 25
  stencil order = 5
  estimated absolute RMS force accuracy = 0.0356718
  estimated relative force accuracy = 0.000107424
  3d grid and FFT values/proc = 3888 1250
  update every 1 steps, delay 0 steps, check yes
Loop time of 1.04555 on 16 procs for 87 steps with 2061 atoms

Minimization stats:
  Stopping criterion = linesearch alpha is zero
  Energy initial, next-to-last, final =
  Force two-norm initial, final = 156.738 70.807
  Force max component initial, final = 58.422 26.8053
  Final line search alpha, max atom move = 2.24532e-12 6.01863e-11
  Iterations, force evaluations = 87 233

timestep        1
fix             pysimm_md all nvt temp 300 300 100
run             5000
PPPM initialization ...
  G vector (1/distance) = 0.0886566
  grid = 25 25 25
  stencil order = 5
  estimated absolute RMS force accuracy = 0.0356718
  estimated relative force accuracy = 0.000107424
  3d grid and FFT values/proc = 3888 1250
Loop time of 9.73862 on 16 procs for 5000 steps with 2061 atoms

unfix pysimm_md
write_dump all custom pysimm.dump.tmp id q x y z vx vy vz
quit

################################################################################
##################################    Init    ##################################
################################################################################
units           real
atom_style      full
pair_style      lj/cut/coul/long 12.0  12.0
kspace_style    pppm 1e-4
bond_style      harmonic
angle_style     harmonic
dihedral_style  fourier
improper_style  cvff
special_bonds   amber
pair_modify     mix arithmetic
read_data       temp.lmps
  orthogonal box = (-162.49 -162.49 -162.49) to (162.49 162.49 162.49)
  reading atoms ...
  2123 atoms
  reading velocities ...
  2123 velocities
  scanning bonds ...
  scanning angles ...
  scanning dihedrals ...
  scanning impropers ...
  reading bonds ...
  2324 bonds
  reading angles ...
  4026 angles
  reading dihedrals ...
  6146 dihedrals
  reading impropers ...
  626 impropers
################################################################################

min_style cg
minimize 1e-05 1e-05 10000 100000
PPPM initialization ...
  G vector (1/distance) = 0.0932635
  grid = 27 27 27
  stencil order = 5
  estimated absolute RMS force accuracy = 0.0321909
  estimated relative force accuracy = 9.69421e-05
  3d grid and FFT values/proc = 4332 1458
  update every 1 steps, delay 0 steps, check yes
Loop time of 0.381502 on 16 procs for 11 steps with 2123 atoms

Minimization stats:
  Stopping criterion = linesearch alpha is zero
  Energy initial, next-to-last, final =
  Force two-norm initial, final = 105.888 65.2298
  Force max component initial, final = 17.0232 9.04172
  Final line search alpha, max atom move = 2.66925e-12 2.41346e-11
  Iterations, force evaluations = 11 83

timestep        1
fix             pysimm_md all nvt temp 300 300 100
run             5000
PPPM initialization ...
  G vector (1/distance) = 0.0932635
  grid = 27 27 27
  stencil order = 5
  estimated absolute RMS force accuracy = 0.0321909
  estimated relative force accuracy = 9.69421e-05
  3d grid and FFT values/proc = 4332 1458
Loop time of 11.1496 on 16 procs for 5000 steps with 2123 atoms

unfix pysimm_md
write_dump all custom pysimm.dump.tmp id q x y z vx vy vz
quit

################################################################################
##################################    Init    ##################################
################################################################################
units           real
atom_style      full
pair_style      lj/cut/coul/long 12.0  12.0
kspace_style    pppm 1e-4
bond_style      harmonic
angle_style     harmonic
dihedral_style  fourier
improper_style  cvff
special_bonds   amber
pair_modify     mix arithmetic
read_data       temp.lmps
  orthogonal box = (-163.941 -163.941 -163.941) to (163.941 163.941 163.941)
  reading atoms ...
  2188 atoms
  reading velocities ...
  2188 velocities
  scanning bonds ...
  scanning angles ...
  scanning dihedrals ...
  scanning impropers ...
  reading bonds ...
  2397 bonds
  reading angles ...
  4140 angles
  reading dihedrals ...
  6348 dihedrals
  reading impropers ...
  648 impropers
################################################################################

min_style cg
minimize 1e-05 1e-05 10000 100000
PPPM initialization ...
  G vector (1/distance) = 0.0926521
  grid = 27 27 27
  stencil order = 5
  estimated absolute RMS force accuracy = 0.0336314
  estimated relative force accuracy = 0.00010128
  3d grid and FFT values/proc = 4332 1458
  update every 1 steps, delay 0 steps, check yes
Loop time of 0.583602 on 16 procs for 38 steps with 2188 atoms

Minimization stats:
  Stopping criterion = linesearch alpha is zero
  Energy initial, next-to-last, final =
  Force two-norm initial, final = 96.6009 67.8306
  Force max component initial, final = 15.5146 8.39328
  Final line search alpha, max atom move = 2.49869e-12 2.09722e-11
  Iterations, force evaluations = 38 135

timestep        1
fix             pysimm_md all nvt temp 300 300 100
run             5000
PPPM initialization ...
  G vector (1/distance) = 0.0926521
  grid = 27 27 27
  stencil order = 5
  estimated absolute RMS force accuracy = 0.0336314
  estimated relative force accuracy = 0.00010128
  3d grid and FFT values/proc = 4332 1458
Loop time of 9.79795 on 16 procs for 5000 steps with 2188 atoms

unfix pysimm_md
write_dump all custom pysimm.dump.tmp id q x y z vx vy vz
quit

################################################################################
##################################    Init    ##################################
################################################################################
units           real
atom_style      full
pair_style      lj/cut/coul/long 12.0  12.0
kspace_style    pppm 1e-4
bond_style      harmonic
angle_style     harmonic
dihedral_style  fourier
improper_style  cvff
special_bonds   amber
pair_modify     mix arithmetic
read_data       temp.lmps
  orthogonal box = (-171.642 -171.642 -171.642) to (171.642 171.642 171.642)
  reading atoms ...
  2226 atoms
  reading velocities ...
  2226 velocities
  scanning bonds ...
  scanning angles ...
  scanning dihedrals ...
  scanning impropers ...
  reading bonds ...
  2434 bonds
  reading angles ...
  4236 angles
  reading dihedrals ...
  6424 dihedrals
  reading impropers ...
  652 impropers
################################################################################

min_style cg
minimize 1e-05 1e-05 10000 100000
PPPM initialization ...
  G vector (1/distance) = 0.0895329
  grid = 27 27 27
  stencil order = 5
  estimated absolute RMS force accuracy = 0.0321764
  estimated relative force accuracy = 9.68984e-05
  3d grid and FFT values/proc = 4332 1458
  update every 1 steps, delay 0 steps, check yes
Loop time of 0.555307 on 16 procs for 16 steps with 2226 atoms

Minimization stats:
  Stopping criterion = linesearch alpha is zero
  Energy initial, next-to-last, final =
  Force two-norm initial, final = 91.195 66.7897
  Force max component initial, final = 9.62085 9.06636
  Final line search alpha, max atom move = 1.67492e-12 1.51854e-11
  Iterations, force evaluations = 16 93

timestep        1
fix             pysimm_md all nvt temp 300 300 100
run             5000
PPPM initialization ...
  G vector (1/distance) = 0.0895329
  grid = 27 27 27
  stencil order = 5
  estimated absolute RMS force accuracy = 0.0321764
  estimated relative force accuracy = 9.68984e-05
  3d grid and FFT values/proc = 4332 1458
Loop time of 11.5611 on 16 procs for 5000 steps with 2226 atoms

unfix pysimm_md
write_dump all custom pysimm.dump.tmp id q x y z vx vy vz
quit

################################################################################
##################################    Init    ##################################
################################################################################
units           real
atom_style      full
pair_style      lj/cut/coul/long 12.0  12.0
kspace_style    pppm 1e-4
bond_style      harmonic
angle_style     harmonic
dihedral_style  fourier
improper_style  cvff
special_bonds   amber
pair_modify     mix arithmetic
read_data       temp.lmps
  orthogonal box = (-166.768 -166.768 -166.768) to (166.768 166.768 166.768)
  reading atoms ...
  2306 atoms
  reading velocities ...
  2306 velocities
  scanning bonds ...
  scanning angles ...
  scanning dihedrals ...
  scanning impropers ...
  reading bonds ...
  2527 bonds
  reading angles ...
  4360 angles
  reading dihedrals ...
  6696 dihedrals
  reading impropers ...
  684 impropers
################################################################################

min_style cg
minimize 1e-05 1e-05 10000 100000
PPPM initialization ...
  G vector (1/distance) = 0.0914826
  grid = 27 27 27
  stencil order = 5
  estimated absolute RMS force accuracy = 0.035022
  estimated relative force accuracy = 0.000105468
  3d grid and FFT values/proc = 4332 1458
  update every 1 steps, delay 0 steps, check yes
Loop time of 0.738683 on 16 procs for 48 steps with 2306 atoms

Minimization stats:
  Stopping criterion = linesearch alpha is zero
  Energy initial, next-to-last, final =
  Force two-norm initial, final = 89.9158 72.4839
  Force max component initial, final = 10.0432 7.87691
  Final line search alpha, max atom move = 1.58225e-12 1.24632e-11
  Iterations, force evaluations = 48 205

timestep        1
fix             pysimm_md all nvt temp 300 300 100
run             5000
PPPM initialization ...
  G vector (1/distance) = 0.0914826
  grid = 27 27 27
  stencil order = 5
  estimated absolute RMS force accuracy = 0.035022
  estimated relative force accuracy = 0.000105468
  3d grid and FFT values/proc = 4332 1458
Loop time of 8.55395 on 16 procs for 5000 steps with 2306 atoms

unfix pysimm_md
write_dump all custom pysimm.dump.tmp id q x y z vx vy vz
quit

################################################################################
##################################    Init    ##################################
################################################################################
units           real
atom_style      full
pair_style      lj/cut/coul/long 12.0  12.0
kspace_style    pppm 1e-4
bond_style      harmonic
angle_style     harmonic
dihedral_style  fourier
improper_style  cvff
special_bonds   amber
pair_modify     mix arithmetic
read_data       temp.lmps
  orthogonal box = (-174.527 -174.527 -174.527) to (174.527 174.527 174.527)
  reading atoms ...
  2353 atoms
  reading velocities ...
  2353 velocities
  scanning bonds ...
  scanning angles ...
  scanning dihedrals ...
  scanning impropers ...
  reading bonds ...
  2576 bonds
  reading angles ...
  4462 angles
  reading dihedrals ...
  6814 dihedrals
  reading impropers ...
  694 impropers
################################################################################

min_style cg
minimize 1e-05 1e-05 10000 100000
PPPM initialization ...
  G vector (1/distance) = 0.0884136
  grid = 27 27 27
  stencil order = 5
  estimated absolute RMS force accuracy = 0.0346168
  estimated relative force accuracy = 0.000104247
  3d grid and FFT values/proc = 4332 1458
  update every 1 steps, delay 0 steps, check yes
Loop time of 0.7804 on 16 procs for 42 steps with 2353 atoms

Minimization stats:
  Stopping criterion = linesearch alpha is zero
  Energy initial, next-to-last, final =
  Force two-norm initial, final = 82.6386 56.8612
  Force max component initial, final = 8.62438 5.3943
  Final line search alpha, max atom move = 2.91452e-12 1.57218e-11
  Iterations, force evaluations = 42 143

timestep        1
fix             pysimm_md all nvt temp 300 300 100
run             5000
PPPM initialization ...
  G vector (1/distance) = 0.0884136
  grid = 27 27 27
  stencil order = 5
  estimated absolute RMS force accuracy = 0.0346168
  estimated relative force accuracy = 0.000104247
  3d grid and FFT values/proc = 4332 1458
Loop time of 12.1998 on 16 procs for 5000 steps with 2353 atoms

unfix pysimm_md
write_dump all custom pysimm.dump.tmp id q x y z vx vy vz
quit

################################################################################
##################################    Init    ##################################
################################################################################
units           real
atom_style      full
pair_style      lj/cut/coul/long 12.0  12.0
kspace_style    pppm 1e-4
bond_style      harmonic
angle_style     harmonic
dihedral_style  fourier
improper_style  cvff
special_bonds   amber
pair_modify     mix arithmetic
read_data       temp.lmps
  orthogonal box = (-175.935 -175.935 -175.935) to (175.935 175.935 175.935)
  reading atoms ...
  2406 atoms
  reading velocities ...
  2406 velocities
  scanning bonds ...
  scanning angles ...
  scanning dihedrals ...
  scanning impropers ...
  reading bonds ...
  2633 bonds
  reading angles ...
  4568 angles
  reading dihedrals ...
  6960 dihedrals
  reading impropers ...
  708 impropers
################################################################################

min_style cg
minimize 1e-05 1e-05 10000 100000
PPPM initialization ...
  G vector (1/distance) = 0.0878779
  grid = 27 27 27
  stencil order = 5
  estimated absolute RMS force accuracy = 0.0345822
  estimated relative force accuracy = 0.000104143
  3d grid and FFT values/proc = 4332 1458
  update every 1 steps, delay 0 steps, check yes
Loop time of 0.716337 on 16 procs for 49 steps with 2406 atoms

Minimization stats:
  Stopping criterion = linesearch alpha is zero
  Energy initial, next-to-last, final =
  Force two-norm initial, final = 100.498 58.2897
  Force max component initial, final = 13.899 7.44217
  Final line search alpha, max atom move = 2.77665e-12 2.06643e-11
  Iterations, force evaluations = 49 175

timestep        1
fix             pysimm_md all nvt temp 300 300 100
run             5000
PPPM initialization ...
  G vector (1/distance) = 0.0878779
  grid = 27 27 27
  stencil order = 5
  estimated absolute RMS force accuracy = 0.0345822
  estimated relative force accuracy = 0.000104143
  3d grid and FFT values/proc = 4332 1458
Loop time of 10.2453 on 16 procs for 5000 steps with 2406 atoms

unfix pysimm_md
write_dump all custom pysimm.dump.tmp id q x y z vx vy vz
quit

################################################################################
##################################    Init    ##################################
################################################################################
units           real
atom_style      full
pair_style      lj/cut/coul/long 12.0  12.0
kspace_style    pppm 1e-4
bond_style      harmonic
angle_style     harmonic
dihedral_style  fourier
improper_style  cvff
special_bonds   amber
pair_modify     mix arithmetic
read_data       temp.lmps
  orthogonal box = (-177.32 -177.32 -177.32) to (177.32 177.32 177.32)
  reading atoms ...
  2489 atoms
  reading velocities ...
  2489 velocities
  scanning bonds ...
  scanning angles ...
  scanning dihedrals ...
  scanning impropers ...
  reading bonds ...
  2730 bonds
  reading angles ...
  4694 angles
  reading dihedrals ...
  7246 dihedrals
  reading impropers ...
  742 impropers
################################################################################

min_style cg
minimize 1e-05 1e-05 10000 100000
PPPM initialization ...
  G vector (1/distance) = 0.0945096
  grid = 30 30 30
  stencil order = 5
  estimated absolute RMS force accuracy = 0.0314891
  estimated relative force accuracy = 9.48285e-05
  3d grid and FFT values/proc = 5200 1800
  update every 1 steps, delay 0 steps, check yes
Loop time of 0.379602 on 16 procs for 29 steps with 2489 atoms

Minimization stats:
  Stopping criterion = energy tolerance
  Energy initial, next-to-last, final =
  Force two-norm initial, final = 95.5061 66.7824
  Force max component initial, final = 16.0371 7.13153
  Final line search alpha, max atom move = 0.00314064 0.0223976
  Iterations, force evaluations = 29 58

timestep        1
fix             pysimm_md all nvt temp 300 300 100
run             5000
PPPM initialization ...
  G vector (1/distance) = 0.0945096
  grid = 30 30 30
  stencil order = 5
  estimated absolute RMS force accuracy = 0.0314891
  estimated relative force accuracy = 9.48285e-05
  3d grid and FFT values/proc = 5200 1800
Loop time of 14.1777 on 16 procs for 5000 steps with 2489 atoms

unfix pysimm_md
write_dump all custom pysimm.dump.tmp id q x y z vx vy vz
quit

################################################################################
##################################    Init    ##################################
################################################################################
units           real
atom_style      full
pair_style      lj/cut/coul/long 12.0  12.0
kspace_style    pppm 1e-4
bond_style      harmonic
angle_style     harmonic
dihedral_style  fourier
improper_style  cvff
special_bonds   amber
pair_modify     mix arithmetic
read_data       temp.lmps
  orthogonal box = (-172.152 -172.152 -172.152) to (172.152 172.152 172.152)
  reading atoms ...
  2521 atoms
  reading velocities ...
  2521 velocities
  scanning bonds ...
  scanning angles ...
  scanning dihedrals ...
  scanning impropers ...
  reading bonds ...
  2759 bonds
  reading angles ...
  4786 angles
  reading dihedrals ...
  7294 dihedrals
  reading impropers ...
  742 impropers
################################################################################

min_style cg
minimize 1e-05 1e-05 10000 100000
PPPM initialization ...
  G vector (1/distance) = 0.0893321
  grid = 27 27 27
  stencil order = 5
  estimated absolute RMS force accuracy = 0.0352851
  estimated relative force accuracy = 0.00010626
  3d grid and FFT values/proc = 4332 1458
  update every 1 steps, delay 0 steps, check yes
Loop time of 0.163742 on 16 procs for 12 steps with 2521 atoms

Minimization stats:
  Stopping criterion = energy tolerance
  Energy initial, next-to-last, final =
  Force two-norm initial, final = 101.113 61.1332
  Force max component initial, final = 15.3524 7.08155
  Final line search alpha, max atom move = 0.00365085 0.0258536
  Iterations, force evaluations = 12 24

timestep        1
fix             pysimm_md all nvt temp 300 300 100
run             5000
PPPM initialization ...
  G vector (1/distance) = 0.0893321
  grid = 27 27 27
  stencil order = 5
  estimated absolute RMS force accuracy = 0.0352851
  estimated relative force accuracy = 0.00010626
  3d grid and FFT values/proc = 4332 1458
Loop time of 12.3121 on 16 procs for 5000 steps with 2521 atoms

unfix pysimm_md
write_dump all custom pysimm.dump.tmp id q x y z vx vy vz
quit

################################################################################
##################################    Init    ##################################
################################################################################
units           real
atom_style      full
pair_style      lj/cut/coul/long 12.0  12.0
kspace_style    pppm 1e-4
bond_style      harmonic
angle_style     harmonic
dihedral_style  fourier
improper_style  cvff
special_bonds   amber
pair_modify     mix arithmetic
read_data       temp.lmps
  orthogonal box = (-180.028 -180.028 -180.028) to (180.028 180.028 180.028)
  reading atoms ...
  2598 atoms
  reading velocities ...
  2598 velocities
  scanning bonds ...
  scanning angles ...
  scanning dihedrals ...
  scanning impropers ...
  reading bonds ...
  2848 bonds
  reading angles ...
  4908 angles
  reading dihedrals ...
  7552 dihedrals
  reading impropers ...
  772 impropers
################################################################################

min_style cg
minimize 1e-05 1e-05 10000 100000
PPPM initialization ...
  G vector (1/distance) = 0.0934613
  grid = 30 30 30
  stencil order = 5
  estimated absolute RMS force accuracy = 0.031768
  estimated relative force accuracy = 9.56685e-05
  3d grid and FFT values/proc = 5200 1800
  update every 1 steps, delay 0 steps, check yes
Loop time of 0.897446 on 16 procs for 79 steps with 2598 atoms

Minimization stats:
  Stopping criterion = linesearch alpha is zero
  Energy initial, next-to-last, final =
  Force two-norm initial, final = 175.616 115.221
  Force max component initial, final = 61.911 57.1986
  Final line search alpha, max atom move = 6.80198e-13 3.89064e-11
  Iterations, force evaluations = 79 219

timestep        1
fix             pysimm_md all nvt temp 300 300 100
run             5000
PPPM initialization ...
  G vector (1/distance) = 0.0934613
  grid = 30 30 30
  stencil order = 5
  estimated absolute RMS force accuracy = 0.031768
  estimated relative force accuracy = 9.56685e-05
  3d grid and FFT values/proc = 5200 1800
Loop time of 12.8366 on 16 procs for 5000 steps with 2598 atoms

unfix pysimm_md
write_dump all custom pysimm.dump.tmp id q x y z vx vy vz
quit

################################################################################
##################################    Init    ##################################
################################################################################
units           real
atom_style      full
pair_style      lj/cut/coul/long 12.0  12.0
kspace_style    pppm 1e-4
bond_style      harmonic
angle_style     harmonic
dihedral_style  fourier
improper_style  cvff
special_bonds   amber
pair_modify     mix arithmetic
read_data       temp.lmps
  orthogonal box = (-174.721 -174.721 -174.721) to (174.721 174.721 174.721)
  reading atoms ...
  2657 atoms
  reading velocities ...
  2657 velocities
  scanning bonds ...
  scanning angles ...
  scanning dihedrals ...
  scanning impropers ...
  reading bonds ...
  2913 bonds
  reading angles ...
  5018 angles
  reading dihedrals ...
  7726 dihedrals
  reading impropers ...
  790 impropers
################################################################################

min_style cg
minimize 1e-05 1e-05 10000 100000
PPPM initialization ...
  G vector (1/distance) = 0.095537
  grid = 30 30 30
  stencil order = 5
  estimated absolute RMS force accuracy = 0.0318628
  estimated relative force accuracy = 9.59538e-05
  3d grid and FFT values/proc = 5200 1800
  update every 1 steps, delay 0 steps, check yes
Loop time of 0.970543 on 16 procs for 55 steps with 2657 atoms

Minimization stats:
  Stopping criterion = linesearch alpha is zero
  Energy initial, next-to-last, final =
  Force two-norm initial, final = 96.7682 55.0369
  Force max component initial, final = 9.7656 9.20446
  Final line search alpha, max atom move = 2.38606e-12 2.19624e-11
  Iterations, force evaluations = 55 171

timestep        1
fix             pysimm_md all nvt temp 300 300 100
run             5000
PPPM initialization ...
  G vector (1/distance) = 0.095537
  grid = 30 30 30
  stencil order = 5
  estimated absolute RMS force accuracy = 0.0318628
  estimated relative force accuracy = 9.59538e-05
  3d grid and FFT values/proc = 5200 1800
Loop time of 12.979 on 16 procs for 5000 steps with 2657 atoms

unfix pysimm_md
write_dump all custom pysimm.dump.tmp id q x y z vx vy vz
quit

################################################################################
##################################    Init    ##################################
################################################################################
units           real
atom_style      full
pair_style      lj/cut/coul/long 12.0  12.0
kspace_style    pppm 1e-4
bond_style      harmonic
angle_style     harmonic
dihedral_style  fourier
improper_style  cvff
special_bonds   amber
pair_modify     mix arithmetic
read_data       temp.lmps
  orthogonal box = (-175.978 -175.978 -175.978) to (175.978 175.978 175.978)
  reading atoms ...
  2686 atoms
  reading velocities ...
  2686 velocities
  scanning bonds ...
  scanning angles ...
  scanning dihedrals ...
  scanning impropers ...
  reading bonds ...
  2938 bonds
  reading angles ...
  5108 angles
  reading dihedrals ...
  7760 dihedrals
  reading impropers ...
  788 impropers
################################################################################

min_style cg
minimize 1e-05 1e-05 10000 100000
PPPM initialization ...
  G vector (1/distance) = 0.0878613
  grid = 27 27 27
  stencil order = 5
  estimated absolute RMS force accuracy = 0.0358788
  estimated relative force accuracy = 0.000108048
  3d grid and FFT values/proc = 4332 1458
  update every 1 steps, delay 0 steps, check yes
Loop time of 1.05656 on 16 procs for 46 steps with 2686 atoms

Minimization stats:
  Stopping criterion = linesearch alpha is zero
  Energy initial, next-to-last, final =
  Force two-norm initial, final = 93.811 74.0283
  Force max component initial, final = 12.2833 8.80828
  Final line search alpha, max atom move = 2.17047e-12 1.91181e-11
  Iterations, force evaluations = 46 151

timestep        1
fix             pysimm_md all nvt temp 300 300 100
run             5000
PPPM initialization ...
  G vector (1/distance) = 0.0878613
  grid = 27 27 27
  stencil order = 5
  estimated absolute RMS force accuracy = 0.0358788
  estimated relative force accuracy = 0.000108048
  3d grid and FFT values/proc = 4332 1458
Loop time of 16.3269 on 16 procs for 5000 steps with 2686 atoms

unfix pysimm_md
write_dump all custom pysimm.dump.tmp id q x y z vx vy vz
quit

################################################################################
##################################    Init    ##################################
################################################################################
units           real
atom_style      full
pair_style      lj/cut/coul/long 12.0  12.0
kspace_style    pppm 1e-4
bond_style      harmonic
angle_style     harmonic
dihedral_style  fourier
improper_style  cvff
special_bonds   amber
pair_modify     mix arithmetic
read_data       temp.lmps
  orthogonal box = (-183.943 -183.943 -183.943) to (183.943 183.943 183.943)
  reading atoms ...
  2769 atoms
  reading velocities ...
  2769 velocities
  scanning bonds ...
  scanning angles ...
  scanning dihedrals ...
  scanning impropers ...
  reading bonds ...
  3035 bonds
  reading angles ...
  5234 angles
  reading dihedrals ...
  8046 dihedrals
  reading impropers ...
  822 impropers
################################################################################

min_style cg
minimize 1e-05 1e-05 10000 100000
PPPM initialization ...
  G vector (1/distance) = 0.091984
  grid = 30 30 30
  stencil order = 5
  estimated absolute RMS force accuracy = 0.0328469
  estimated relative force accuracy = 9.89173e-05
  3d grid and FFT values/proc = 5200 1800
  update every 1 steps, delay 0 steps, check yes
Loop time of 0.362824 on 16 procs for 6 steps with 2769 atoms

Minimization stats:
  Stopping criterion = linesearch alpha is zero
  Energy initial, next-to-last, final =
  Force two-norm initial, final = 113.164 73.8125
  Force max component initial, final = 15.0186 7.52612
  Final line search alpha, max atom move = 2.13864e-12 1.60957e-11
  Iterations, force evaluations = 6 73

timestep        1
fix             pysimm_md all nvt temp 300 300 100
run             5000
PPPM initialization ...
  G vector (1/distance) = 0.091984
  grid = 30 30 30
  stencil order = 5
  estimated absolute RMS force accuracy = 0.0328469
  estimated relative force accuracy = 9.89173e-05
  3d grid and FFT values/proc = 5200 1800
Loop time of 12.6328 on 16 procs for 5000 steps with 2769 atoms

unfix pysimm_md
write_dump all custom pysimm.dump.tmp id q x y z vx vy vz
quit

################################################################################
##################################    Init    ##################################
################################################################################
units           real
atom_style      full
pair_style      lj/cut/coul/long 12.0  12.0
kspace_style    pppm 1e-4
bond_style      harmonic
angle_style     harmonic
dihedral_style  fourier
improper_style  cvff
special_bonds   amber
pair_modify     mix arithmetic
read_data       temp.lmps
  orthogonal box = (-178.44 -178.44 -178.44) to (178.44 178.44 178.44)
  reading atoms ...
  2810 atoms
  reading velocities ...
  2810 velocities
  scanning bonds ...
  scanning angles ...
  scanning dihedrals ...
  scanning impropers ...
  reading bonds ...
  3076 bonds
  reading angles ...
  5332 angles
  reading dihedrals ...
  8136 dihedrals
  reading impropers ...
  828 impropers
################################################################################

min_style cg
minimize 1e-05 1e-05 10000 100000
PPPM initialization ...
  G vector (1/distance) = 0.0940734
  grid = 30 30 30
  stencil order = 5
  estimated absolute RMS force accuracy = 0.031358
  estimated relative force accuracy = 9.44338e-05
  3d grid and FFT values/proc = 5200 1800
  update every 1 steps, delay 0 steps, check yes
Loop time of 0.647952 on 16 procs for 47 steps with 2810 atoms

Minimization stats:
  Stopping criterion = energy tolerance
  Energy initial, next-to-last, final =
  Force two-norm initial, final = 95.2942 49.4731
  Force max component initial, final = 10.6447 5.3349
  Final line search alpha, max atom move = 0.00480818 0.0256512
  Iterations, force evaluations = 47 94

timestep        1
fix             pysimm_md all nvt temp 300 300 100
run             5000
PPPM initialization ...
  G vector (1/distance) = 0.0940734
  grid = 30 30 30
  stencil order = 5
  estimated absolute RMS force accuracy = 0.031358
  estimated relative force accuracy = 9.44338e-05
  3d grid and FFT values/proc = 5200 1800
Loop time of 12.2602 on 16 procs for 5000 steps with 2810 atoms

unfix pysimm_md
write_dump all custom pysimm.dump.tmp id q x y z vx vy vz
quit

################################################################################
##################################    Init    ##################################
################################################################################
units           real
atom_style      full
pair_style      lj/cut/coul/long 12.0  12.0
kspace_style    pppm 1e-4
bond_style      harmonic
angle_style     harmonic
dihedral_style  fourier
improper_style  cvff
special_bonds   amber
pair_modify     mix arithmetic
read_data       temp.lmps
  orthogonal box = (-186.463 -186.463 -186.463) to (186.463 186.463 186.463)
  reading atoms ...
  2875 atoms
  reading velocities ...
  2875 velocities
  scanning bonds ...
  scanning angles ...
  scanning dihedrals ...
  scanning impropers ...
  reading bonds ...
  3149 bonds
  reading angles ...
  5446 angles
  reading dihedrals ...
  8338 dihedrals
  reading impropers ...
  850 impropers
################################################################################

min_style cg
minimize 1e-05 1e-05 10000 100000
PPPM initialization ...
  G vector (1/distance) = 0.0910565
  grid = 30 30 30
  stencil order = 5
  estimated absolute RMS force accuracy = 0.0328229
  estimated relative force accuracy = 9.88452e-05
  3d grid and FFT values/proc = 5200 1800
  update every 1 steps, delay 0 steps, check yes
Loop time of 0.707688 on 16 procs for 8 steps with 2875 atoms

Minimization stats:
  Stopping criterion = linesearch alpha is zero
  Energy initial, next-to-last, final =
  Force two-norm initial, final = 99.3658 74.2518
  Force max component initial, final = 13.5766 11.0628
  Final line search alpha, max atom move = 1.88978e-12 2.09062e-11
  Iterations, force evaluations = 8 77

timestep        1
fix             pysimm_md all nvt temp 300 300 100
run             5000
PPPM initialization ...
  G vector (1/distance) = 0.0910565
  grid = 30 30 30
  stencil order = 5
  estimated absolute RMS force accuracy = 0.0328229
  estimated relative force accuracy = 9.88452e-05
  3d grid and FFT values/proc = 5200 1800
Loop time of 19.8121 on 16 procs for 5000 steps with 2875 atoms

unfix pysimm_md
write_dump all custom pysimm.dump.tmp id q x y z vx vy vz
quit
