################################################################################
##################################    Init    ##################################
################################################################################
units           real
atom_style      full
pair_style      lj/cut/coul/long 12.0  12.0
kspace_style    pppm 1e-4
bond_style      harmonic
angle_style     harmonic
dihedral_style  fourier
improper_style  cvff
special_bonds   amber
pair_modify     mix arithmetic
read_data       temp.lmps
  orthogonal box = (-74.2718 -74.2718 -74.2718) to (74.2718 74.2718 74.2718)
  reading atoms ...
  274 atoms
  reading velocities ...
  274 velocities
  scanning bonds ...
  scanning angles ...
  scanning dihedrals ...
  reading bonds ...
  273 bonds
  reading angles ...
  528 angles
  reading dihedrals ...
  753 dihedrals
################################################################################

min_style cg
minimize 1e-05 1e-05 10000 100000
PPPM initialization ...
  G vector (1/distance) = 0.121
  grid = 18 18 18
  stencil order = 5
  estimated absolute RMS force accuracy = 0.0312651
  estimated relative force accuracy = 9.41541e-05
  3d grid and FFT values/proc = 1960 648
  update every 1 steps, delay 0 steps, check yes
Step Temp E_pair E_mol TotEng Press
0    1188.3034   -511.26595    119.25889     574.9881    12.532683
Loop time of 0.097755 on 16 procs for 9 steps with 274 atoms

Minimization stats:
  Stopping criterion = linesearch alpha is zero
  Energy initial, next-to-last, final =
  Force two-norm initial, final = 28.4619 22.4728
  Force max component initial, final = 5.8264 6.72473
  Final line search alpha, max atom move = 1.66355e-11 1.11869e-10
  Iterations, force evaluations = 9 75

timestep        1
fix             pysimm_md all nvt temp 300 300 100
run             5000
PPPM initialization ...
  G vector (1/distance) = 0.121
  grid = 18 18 18
  stencil order = 5
  estimated absolute RMS force accuracy = 0.0312651
  estimated relative force accuracy = 9.41541e-05
  3d grid and FFT values/proc = 1960 648
Step Temp E_pair E_mol TotEng Press
9    1188.3034   -512.26223      118.039    572.77192    12.803749
Loop time of 2.75359 on 16 procs for 5000 steps with 274 atoms

unfix pysimm_md
write_dump all custom pysimm.dump.tmp id q x y z vx vy vz
quit

################################################################################
##################################    Init    ##################################
################################################################################
units           real
atom_style      full
pair_style      lj/cut/coul/long 12.0  12.0
kspace_style    pppm 1e-4
bond_style      harmonic
angle_style     harmonic
dihedral_style  fourier
improper_style  cvff
special_bonds   amber
pair_modify     mix arithmetic
read_data       temp.lmps
  orthogonal box = (-54.8136 -54.8136 -54.8136) to (54.8136 54.8136 54.8136)
  reading atoms ...
  287 atoms
  reading velocities ...
  287 velocities
  scanning bonds ...
  scanning angles ...
  scanning dihedrals ...
  reading bonds ...
  286 bonds
  reading angles ...
  553 angles
  reading dihedrals ...
  778 dihedrals
################################################################################

min_style cg
minimize 1e-05 1e-05 10000 100000
PPPM initialization ...
  G vector (1/distance) = 0.135612
  grid = 16 16 16
  stencil order = 5
  estimated absolute RMS force accuracy = 0.0308434
  estimated relative force accuracy = 9.28841e-05
  3d grid and FFT values/proc = 1521 256
  update every 1 steps, delay 0 steps, check yes
Step Temp E_pair E_mol TotEng Press
0     714.9006      -658.23    122.96343    74.194544    22.726367
Loop time of 0.131885 on 16 procs for 57 steps with 287 atoms

Minimization stats:
  Stopping criterion = linesearch alpha is zero
  Energy initial, next-to-last, final =
  Force two-norm initial, final = 34.5876 20.7384
  Force max component initial, final = 5.73739 4.81448
  Final line search alpha, max atom move = 2.0794e-11 1.00112e-10
  Iterations, force evaluations = 57 169

timestep        1
fix             pysimm_md all nvt temp 300 300 100
run             5000
PPPM initialization ...
  G vector (1/distance) = 0.135612
  grid = 16 16 16
  stencil order = 5
  estimated absolute RMS force accuracy = 0.0308434
  estimated relative force accuracy = 9.28841e-05
  3d grid and FFT values/proc = 1521 256
Step Temp E_pair E_mol TotEng Press
57     714.9006    -666.2704    105.51589    48.706595    21.300656
Loop time of 2.19029 on 16 procs for 5000 steps with 287 atoms

unfix pysimm_md
write_dump all custom pysimm.dump.tmp id q x y z vx vy vz
quit

################################################################################
##################################    Init    ##################################
################################################################################
units           real
atom_style      full
pair_style      lj/cut/coul/long 12.0  12.0
kspace_style    pppm 1e-4
bond_style      harmonic
angle_style     harmonic
dihedral_style  fourier
improper_style  cvff
special_bonds   amber
pair_modify     mix arithmetic
read_data       temp.lmps
  orthogonal box = (-78.9255 -78.9255 -78.9255) to (78.9255 78.9255 78.9255)
  reading atoms ...
  324 atoms
  reading velocities ...
  324 velocities
  scanning bonds ...
  scanning angles ...
  scanning dihedrals ...
  reading bonds ...
  323 bonds
  reading angles ...
  626 angles
  reading dihedrals ...
  886 dihedrals
################################################################################

min_style cg
minimize 1e-05 1e-05 10000 100000
PPPM initialization ...
  G vector (1/distance) = 0.116332
  grid = 18 18 18
  stencil order = 5
  estimated absolute RMS force accuracy = 0.036927
  estimated relative force accuracy = 0.000111205
  3d grid and FFT values/proc = 1960 648
  update every 1 steps, delay 0 steps, check yes
Step Temp E_pair E_mol TotEng Press
0    853.91865   -674.46882    151.40142    299.08688    10.218027
Loop time of 0.0711402 on 16 procs for 4 steps with 324 atoms

Minimization stats:
  Stopping criterion = linesearch alpha is zero
  Energy initial, next-to-last, final =
  Force two-norm initial, final = 57.4998 39.5554
  Force max component initial, final = 8.62882 9.39158
  Final line search alpha, max atom move = 4.78228e-12 4.49131e-11
  Iterations, force evaluations = 4 69

timestep        1
fix             pysimm_md all nvt temp 300 300 100
run             5000
PPPM initialization ...
  G vector (1/distance) = 0.116332
  grid = 18 18 18
  stencil order = 5
  estimated absolute RMS force accuracy = 0.036927
  estimated relative force accuracy = 0.000111205
  3d grid and FFT values/proc = 1960 648
Step Temp E_pair E_mol TotEng Press
4    853.91865   -674.38455    148.37638    296.14611    10.852003
Loop time of 3.39373 on 16 procs for 5000 steps with 324 atoms

unfix pysimm_md
write_dump all custom pysimm.dump.tmp id q x y z vx vy vz
quit

################################################################################
##################################    Init    ##################################
################################################################################
units           real
atom_style      full
pair_style      lj/cut/coul/long 12.0  12.0
kspace_style    pppm 1e-4
bond_style      harmonic
angle_style     harmonic
dihedral_style  fourier
improper_style  cvff
special_bonds   amber
pair_modify     mix arithmetic
read_data       temp.lmps
  orthogonal box = (-57.9525 -57.9525 -57.9525) to (57.9525 57.9525 57.9525)
  reading atoms ...
  313 atoms
  reading velocities ...
  313 velocities
  scanning bonds ...
  scanning angles ...
  scanning dihedrals ...
  reading bonds ...
  312 bonds
  reading angles ...
  603 angles
  reading dihedrals ...
  854 dihedrals
################################################################################

min_style cg
minimize 1e-05 1e-05 10000 100000
PPPM initialization ...
  G vector (1/distance) = 0.140573
  grid = 18 18 18
  stencil order = 5
  estimated absolute RMS force accuracy = 0.0263045
  estimated relative force accuracy = 7.92153e-05
  3d grid and FFT values/proc = 1960 648
  update every 1 steps, delay 0 steps, check yes
Step Temp E_pair E_mol TotEng Press
0    944.64129   -648.55126    125.83236    355.80953    24.984067
Loop time of 0.0777493 on 16 procs for 14 steps with 313 atoms

Minimization stats:
  Stopping criterion = linesearch alpha is zero
  Energy initial, next-to-last, final =
  Force two-norm initial, final = 32.0042 30.613
  Force max component initial, final = 5.49286 10.616
  Final line search alpha, max atom move = 1.13221e-11 1.20196e-10
  Iterations, force evaluations = 14 85

timestep        1
fix             pysimm_md all nvt temp 300 300 100
run             5000
PPPM initialization ...
  G vector (1/distance) = 0.140573
  grid = 18 18 18
  stencil order = 5
  estimated absolute RMS force accuracy = 0.0263045
  estimated relative force accuracy = 7.92153e-05
  3d grid and FFT values/proc = 1960 648
Step Temp E_pair E_mol TotEng Press
14    944.64129   -652.08852    122.17512    348.61503    25.468378
Loop time of 2.81422 on 16 procs for 5000 steps with 313 atoms

unfix pysimm_md
write_dump all custom pysimm.dump.tmp id q x y z vx vy vz
quit

################################################################################
##################################    Init    ##################################
################################################################################
units           real
atom_style      full
pair_style      lj/cut/coul/long 12.0  12.0
kspace_style    pppm 1e-4
bond_style      harmonic
angle_style     harmonic
dihedral_style  fourier
improper_style  cvff
special_bonds   amber
pair_modify     mix arithmetic
read_data       temp.lmps
  orthogonal box = (-59.4019 -59.4019 -59.4019) to (59.4019 59.4019 59.4019)
  reading atoms ...
  302 atoms
  reading velocities ...
  302 velocities
  scanning bonds ...
  scanning angles ...
  scanning dihedrals ...
  reading bonds ...
  301 bonds
  reading angles ...
  581 angles
  reading dihedrals ...
  813 dihedrals
################################################################################

min_style cg
minimize 1e-05 1e-05 10000 100000
PPPM initialization ...
  G vector (1/distance) = 0.138594
  grid = 18 18 18
  stencil order = 5
  estimated absolute RMS force accuracy = 0.0300039
  estimated relative force accuracy = 9.03559e-05
  3d grid and FFT values/proc = 1960 648
  update every 1 steps, delay 0 steps, check yes
Step Temp E_pair E_mol TotEng Press
0    981.21283   -709.90523    122.90219    293.36449    23.835812
Loop time of 0.137594 on 16 procs for 47 steps with 302 atoms

Minimization stats:
  Stopping criterion = linesearch alpha is zero
  Energy initial, next-to-last, final =
  Force two-norm initial, final = 39.8243 19.5329
  Force max component initial, final = 10.7461 5.26305
  Final line search alpha, max atom move = 2.32085e-11 1.22148e-10
  Iterations, force evaluations = 47 149

timestep        1
fix             pysimm_md all nvt temp 300 300 100
run             5000
PPPM initialization ...
  G vector (1/distance) = 0.138594
  grid = 18 18 18
  stencil order = 5
  estimated absolute RMS force accuracy = 0.0300039
  estimated relative force accuracy = 9.03559e-05
  3d grid and FFT values/proc = 1960 648
Step Temp E_pair E_mol TotEng Press
47    981.21283    -711.8724    105.06495    273.56007    23.973656
Loop time of 2.66247 on 16 procs for 5000 steps with 302 atoms

unfix pysimm_md
write_dump all custom pysimm.dump.tmp id q x y z vx vy vz
quit

################################################################################
##################################    Init    ##################################
################################################################################
units           real
atom_style      full
pair_style      lj/cut/coul/long 12.0  12.0
kspace_style    pppm 1e-4
bond_style      harmonic
angle_style     harmonic
dihedral_style  fourier
improper_style  cvff
special_bonds   amber
pair_modify     mix arithmetic
read_data       temp.lmps
  orthogonal box = (-85.02 -85.02 -85.02) to (85.02 85.02 85.02)
  reading atoms ...
  363 atoms
  reading velocities ...
  363 velocities
  scanning bonds ...
  scanning angles ...
  scanning dihedrals ...
  reading bonds ...
  362 bonds
  reading angles ...
  700 angles
  reading dihedrals ...
  987 dihedrals
################################################################################

min_style cg
minimize 1e-05 1e-05 10000 100000
PPPM initialization ...
  G vector (1/distance) = 0.118703
  grid = 20 20 20
  stencil order = 5
  estimated absolute RMS force accuracy = 0.0358864
  estimated relative force accuracy = 0.000108071
  3d grid and FFT values/proc = 2250 800
  update every 1 steps, delay 0 steps, check yes
Step Temp E_pair E_mol TotEng Press
0    697.12661    -798.9817    141.65534    94.910362    7.5472184
Loop time of 0.13886 on 16 procs for 36 steps with 363 atoms

Minimization stats:
  Stopping criterion = linesearch alpha is zero
  Energy initial, next-to-last, final =
  Force two-norm initial, final = 37.1026 23.7055
  Force max component initial, final = 7.71257 6.35548
  Final line search alpha, max atom move = 2.22269e-11 1.41263e-10
  Iterations, force evaluations = 36 127

timestep        1
fix             pysimm_md all nvt temp 300 300 100
run             5000
PPPM initialization ...
  G vector (1/distance) = 0.118703
  grid = 20 20 20
  stencil order = 5
  estimated absolute RMS force accuracy = 0.0358864
  estimated relative force accuracy = 0.000108071
  3d grid and FFT values/proc = 2250 800
Step Temp E_pair E_mol TotEng Press
36    697.12661   -802.99299    128.77356    78.017295    5.6768259
Loop time of 3.16152 on 16 procs for 5000 steps with 363 atoms

unfix pysimm_md
write_dump all custom pysimm.dump.tmp id q x y z vx vy vz
quit

################################################################################
##################################    Init    ##################################
################################################################################
units           real
atom_style      full
pair_style      lj/cut/coul/long 12.0  12.0
kspace_style    pppm 1e-4
bond_style      harmonic
angle_style     harmonic
dihedral_style  fourier
improper_style  cvff
special_bonds   amber
pair_modify     mix arithmetic
read_data       temp.lmps
  orthogonal box = (-62.1056 -62.1056 -62.1056) to (62.1056 62.1056 62.1056)
  reading atoms ...
  352 atoms
  reading velocities ...
  352 velocities
  scanning bonds ...
  scanning angles ...
  scanning dihedrals ...
  reading bonds ...
  351 bonds
  reading angles ...
  677 angles
  reading dihedrals ...
  950 dihedrals
################################################################################

min_style cg
minimize 1e-05 1e-05 10000 100000
PPPM initialization ...
  G vector (1/distance) = 0.135046
  grid = 18 18 18
  stencil order = 5
  estimated absolute RMS force accuracy = 0.0341847
  estimated relative force accuracy = 0.000102946
  3d grid and FFT values/proc = 1960 648
  update every 1 steps, delay 0 steps, check yes
Step Temp E_pair E_mol TotEng Press
0     1049.799   -837.98216    150.89342    411.27847     23.58365
Loop time of 0.00566772 on 16 procs for 2 steps with 352 atoms

Minimization stats:
  Stopping criterion = energy tolerance
  Energy initial, next-to-last, final =
  Force two-norm initial, final = 38.0393 26.8973
  Force max component initial, final = 9.7195 7.71379
  Final line search alpha, max atom move = 0.0179604 0.138543
  Iterations, force evaluations = 2 4

timestep        1
fix             pysimm_md all nvt temp 300 300 100
run             5000
PPPM initialization ...
  G vector (1/distance) = 0.135046
  grid = 18 18 18
  stencil order = 5
  estimated absolute RMS force accuracy = 0.0341847
  estimated relative force accuracy = 0.000102946
  3d grid and FFT values/proc = 1960 648
Step Temp E_pair E_mol TotEng Press
2     1049.799   -837.57527    150.01679    410.80872    23.692147
Loop time of 3.3073 on 16 procs for 5000 steps with 352 atoms

unfix pysimm_md
write_dump all custom pysimm.dump.tmp id q x y z vx vy vz
quit

################################################################################
##################################    Init    ##################################
################################################################################
units           real
atom_style      full
pair_style      lj/cut/coul/long 12.0  12.0
kspace_style    pppm 1e-4
bond_style      harmonic
angle_style     harmonic
dihedral_style  fourier
improper_style  cvff
special_bonds   amber
pair_modify     mix arithmetic
read_data       temp.lmps
  orthogonal box = (-88.6421 -88.6421 -88.6421) to (88.6421 88.6421 88.6421)
  reading atoms ...
  509 atoms
  reading velocities ...
  509 velocities
  scanning bonds ...
  scanning angles ...
  scanning dihedrals ...
  reading bonds ...
  508 bonds
  reading angles ...
  986 angles
  reading dihedrals ...
  1406 dihedrals
################################################################################

min_style cg
minimize 1e-05 1e-05 10000 100000
PPPM initialization ...
  G vector (1/distance) = 0.115513
  grid = 20 20 20
  stencil order = 5
  estimated absolute RMS force accuracy = 0.0361533
  estimated relative force accuracy = 0.000108875
  3d grid and FFT values/proc = 2250 800
  update every 1 steps, delay 0 steps, check yes
Step Temp E_pair E_mol TotEng Press
0    825.67703   -983.53751    218.23314    484.97831    11.534643
Loop time of 0.266629 on 16 procs for 46 steps with 509 atoms

Minimization stats:
  Stopping criterion = linesearch alpha is zero
  Energy initial, next-to-last, final =
  Force two-norm initial, final = 47.2601 28.6603
  Force max component initial, final = 13.0192 7.55155
  Final line search alpha, max atom move = 1.12664e-11 8.50791e-11
  Iterations, force evaluations = 46 149

timestep        1
fix             pysimm_md all nvt temp 300 300 100
run             5000
PPPM initialization ...
  G vector (1/distance) = 0.115513
  grid = 20 20 20
  stencil order = 5
  estimated absolute RMS force accuracy = 0.0361533
  estimated relative force accuracy = 0.000108875
  3d grid and FFT values/proc = 2250 800
Step Temp E_pair E_mol TotEng Press
46    825.67703   -991.23249    190.85918    449.90938    9.8136461
Loop time of 3.60555 on 16 procs for 5000 steps with 509 atoms

unfix pysimm_md
write_dump all custom pysimm.dump.tmp id q x y z vx vy vz
quit

################################################################################
##################################    Init    ##################################
################################################################################
units           real
atom_style      full
pair_style      lj/cut/coul/long 12.0  12.0
kspace_style    pppm 1e-4
bond_style      harmonic
angle_style     harmonic
dihedral_style  fourier
improper_style  cvff
special_bonds   amber
pair_modify     mix arithmetic
read_data       temp.lmps
  orthogonal box = (-64.5925 -64.5925 -64.5925) to (64.5925 64.5925 64.5925)
  reading atoms ...
  474 atoms
  reading velocities ...
  474 velocities
  scanning bonds ...
  scanning angles ...
  scanning dihedrals ...
  reading bonds ...
  473 bonds
  reading angles ...
  916 angles
  reading dihedrals ...
  1305 dihedrals
################################################################################

min_style cg
minimize 1e-05 1e-05 10000 100000
PPPM initialization ...
  G vector (1/distance) = 0.140324
  grid = 20 20 20
  stencil order = 5
  estimated absolute RMS force accuracy = 0.0254699
  estimated relative force accuracy = 7.67018e-05
  3d grid and FFT values/proc = 2250 800
  update every 1 steps, delay 0 steps, check yes
Step Temp E_pair E_mol TotEng Press
0    531.29042   -975.66889     184.6376   -41.952624    14.830267
Loop time of 0.361301 on 16 procs for 48 steps with 474 atoms

Minimization stats:
  Stopping criterion = linesearch alpha is zero
  Energy initial, next-to-last, final =
  Force two-norm initial, final = 46.5224 20.6298
  Force max component initial, final = 10.164 3.72443
  Final line search alpha, max atom move = 2.55452e-11 9.51413e-11
  Iterations, force evaluations = 48 151

timestep        1
fix             pysimm_md all nvt temp 300 300 100
run             5000
PPPM initialization ...
  G vector (1/distance) = 0.140324
  grid = 20 20 20
  stencil order = 5
  estimated absolute RMS force accuracy = 0.0254699
  estimated relative force accuracy = 7.67018e-05
  3d grid and FFT values/proc = 2250 800
Step Temp E_pair E_mol TotEng Press
48    531.29042   -980.02089    161.22684   -69.715377    14.379206
Loop time of 4.90298 on 16 procs for 5000 steps with 474 atoms

unfix pysimm_md
write_dump all custom pysimm.dump.tmp id q x y z vx vy vz
quit

################################################################################
##################################    Init    ##################################
################################################################################
units           real
atom_style      full
pair_style      lj/cut/coul/long 12.0  12.0
kspace_style    pppm 1e-4
bond_style      harmonic
angle_style     harmonic
dihedral_style  fourier
improper_style  cvff
special_bonds   amber
pair_modify     mix arithmetic
read_data       temp.lmps
  orthogonal box = (-65.7671 -65.7671 -65.7671) to (65.7671 65.7671 65.7671)
  reading atoms ...
  535 atoms
  reading velocities ...
  535 velocities
  scanning bonds ...
  scanning angles ...
  scanning dihedrals ...
  reading bonds ...
  534 bonds
  reading angles ...
  1034 angles
  reading dihedrals ...
  1463 dihedrals
################################################################################

min_style cg
minimize 1e-05 1e-05 10000 100000
PPPM initialization ...
  G vector (1/distance) = 0.138885
  grid = 20 20 20
  stencil order = 5
  estimated absolute RMS force accuracy = 0.0261533
  estimated relative force accuracy = 7.87598e-05
  3d grid and FFT values/proc = 2250 800
  update every 1 steps, delay 0 steps, check yes
Step Temp E_pair E_mol TotEng Press
0    424.47923   -1196.3155    192.29244   -328.35715     12.98591
Loop time of 0.40618 on 16 procs for 64 steps with 535 atoms

Minimization stats:
  Stopping criterion = linesearch alpha is zero
  Energy initial, next-to-last, final =
  Force two-norm initial, final = 47.7674 24.5816
  Force max component initial, final = 11.0699 4.36405
  Final line search alpha, max atom move = 1.05353e-11 4.59764e-11
  Iterations, force evaluations = 64 185

timestep        1
fix             pysimm_md all nvt temp 300 300 100
run             5000
PPPM initialization ...
  G vector (1/distance) = 0.138885
  grid = 20 20 20
  stencil order = 5
  estimated absolute RMS force accuracy = 0.0261533
  estimated relative force accuracy = 7.87598e-05
  3d grid and FFT values/proc = 2250 800
Step Temp E_pair E_mol TotEng Press
64    424.47923   -1207.9778    160.32642   -371.98551      12.4317
Loop time of 3.35435 on 16 procs for 5000 steps with 535 atoms

unfix pysimm_md
write_dump all custom pysimm.dump.tmp id q x y z vx vy vz
quit

################################################################################
##################################    Init    ##################################
################################################################################
units           real
atom_style      full
pair_style      lj/cut/coul/long 12.0  12.0
kspace_style    pppm 1e-4
bond_style      harmonic
angle_style     harmonic
dihedral_style  fourier
improper_style  cvff
special_bonds   amber
pair_modify     mix arithmetic
read_data       temp.lmps
  orthogonal box = (-93.5766 -93.5766 -93.5766) to (93.5766 93.5766 93.5766)
  reading atoms ...
  500 atoms
  reading velocities ...
  500 velocities
  scanning bonds ...
  scanning angles ...
  scanning dihedrals ...
  reading bonds ...
  499 bonds
  reading angles ...
  966 angles
  reading dihedrals ...
  1374 dihedrals
################################################################################

min_style cg
minimize 1e-05 1e-05 10000 100000
PPPM initialization ...
  G vector (1/distance) = 0.125402
  grid = 24 24 24
  stencil order = 5
  estimated absolute RMS force accuracy = 0.0279247
  estimated relative force accuracy = 8.40945e-05
  3d grid and FFT values/proc = 3179 1152
  update every 1 steps, delay 0 steps, check yes
Step Temp E_pair E_mol TotEng Press
0    681.97065   -993.61845    190.77615    211.53736    6.0385286
Loop time of 0.161563 on 16 procs for 30 steps with 500 atoms

Minimization stats:
  Stopping criterion = linesearch alpha is zero
  Energy initial, next-to-last, final =
  Force two-norm initial, final = 37.7263 23.5743
  Force max component initial, final = 11.775 3.71749
  Final line search alpha, max atom move = 1.22954e-11 4.57081e-11
  Iterations, force evaluations = 30 117

timestep        1
fix             pysimm_md all nvt temp 300 300 100
run             5000
PPPM initialization ...
  G vector (1/distance) = 0.125402
  grid = 24 24 24
  stencil order = 5
  estimated absolute RMS force accuracy = 0.0279247
  estimated relative force accuracy = 8.40945e-05
  3d grid and FFT values/proc = 3179 1152
Step Temp E_pair E_mol TotEng Press
30    681.97065   -992.94668    176.00197    197.43495    6.9950999
Loop time of 4.30147 on 16 procs for 5000 steps with 500 atoms

unfix pysimm_md
write_dump all custom pysimm.dump.tmp id q x y z vx vy vz
quit

################################################################################
##################################    Init    ##################################
################################################################################
units           real
atom_style      full
pair_style      lj/cut/coul/long 12.0  12.0
kspace_style    pppm 1e-4
bond_style      harmonic
angle_style     harmonic
dihedral_style  fourier
improper_style  cvff
special_bonds   amber
pair_modify     mix arithmetic
read_data       temp.lmps
  orthogonal box = (-95.1109 -95.1109 -95.1109) to (95.1109 95.1109 95.1109)
  reading atoms ...
  561 atoms
  reading velocities ...
  561 velocities
  scanning bonds ...
  scanning angles ...
  scanning dihedrals ...
  reading bonds ...
  560 bonds
  reading angles ...
  1085 angles
  reading dihedrals ...
  1545 dihedrals
################################################################################

min_style cg
minimize 1e-05 1e-05 10000 100000
PPPM initialization ...
  G vector (1/distance) = 0.124133
  grid = 24 24 24
  stencil order = 5
  estimated absolute RMS force accuracy = 0.0283273
  estimated relative force accuracy = 8.53067e-05
  3d grid and FFT values/proc = 3179 1152
  update every 1 steps, delay 0 steps, check yes
Step Temp E_pair E_mol TotEng Press
0    578.71182   -1132.6822    233.32311    66.657718    6.5281991
Loop time of 0.301863 on 16 procs for 38 steps with 561 atoms

Minimization stats:
  Stopping criterion = linesearch alpha is zero
  Energy initial, next-to-last, final =
  Force two-norm initial, final = 51.7274 33.8741
  Force max component initial, final = 8.54014 7.23389
  Final line search alpha, max atom move = 8.57653e-12 6.20417e-11
  Iterations, force evaluations = 38 133

timestep        1
fix             pysimm_md all nvt temp 300 300 100
run             5000
PPPM initialization ...
  G vector (1/distance) = 0.124133
  grid = 24 24 24
  stencil order = 5
  estimated absolute RMS force accuracy = 0.0283273
  estimated relative force accuracy = 8.53067e-05
  3d grid and FFT values/proc = 3179 1152
Step Temp E_pair E_mol TotEng Press
38    578.71182   -1141.5209    195.24513    19.741031    5.5688297
Loop time of 4.65344 on 16 procs for 5000 steps with 561 atoms

unfix pysimm_md
write_dump all custom pysimm.dump.tmp id q x y z vx vy vz
quit

################################################################################
##################################    Init    ##################################
################################################################################
units           real
atom_style      full
pair_style      lj/cut/coul/long 12.0  12.0
kspace_style    pppm 1e-4
bond_style      harmonic
angle_style     harmonic
dihedral_style  fourier
improper_style  cvff
special_bonds   amber
pair_modify     mix arithmetic
read_data       temp.lmps
  orthogonal box = (-96.5972 -96.5972 -96.5972) to (96.5972 96.5972 96.5972)
  reading atoms ...
  670 atoms
  reading velocities ...
  670 velocities
  scanning bonds ...
  scanning angles ...
  scanning dihedrals ...
  reading bonds ...
  669 bonds
  reading angles ...
  1299 angles
  reading dihedrals ...
  1847 dihedrals
################################################################################

min_style cg
minimize 1e-05 1e-05 10000 100000
PPPM initialization ...
  G vector (1/distance) = 0.122927
  grid = 24 24 24
  stencil order = 5
  estimated absolute RMS force accuracy = 0.0278074
  estimated relative force accuracy = 8.37412e-05
  3d grid and FFT values/proc = 3179 1152
  update every 1 steps, delay 0 steps, check yes
Step Temp E_pair E_mol TotEng Press
0    389.08294   -1389.7685    246.89545   -366.97873    4.7290781
Loop time of 0.328867 on 16 procs for 24 steps with 670 atoms

Minimization stats:
  Stopping criterion = linesearch alpha is zero
  Energy initial, next-to-last, final =
  Force two-norm initial, final = 45.3767 36.3631
  Force max component initial, final = 9.25852 9.21425
  Final line search alpha, max atom move = 6.76128e-12 6.23001e-11
  Iterations, force evaluations = 24 105

timestep        1
fix             pysimm_md all nvt temp 300 300 100
run             5000
PPPM initialization ...
  G vector (1/distance) = 0.122927
  grid = 24 24 24
  stencil order = 5
  estimated absolute RMS force accuracy = 0.0278074
  estimated relative force accuracy = 8.37412e-05
  3d grid and FFT values/proc = 3179 1152
Step Temp E_pair E_mol TotEng Press
24    389.08294   -1398.5171    233.46059   -389.16214    4.2550589
Loop time of 6.99129 on 16 procs for 5000 steps with 670 atoms

unfix pysimm_md
write_dump all custom pysimm.dump.tmp id q x y z vx vy vz
quit

################################################################################
##################################    Init    ##################################
################################################################################
units           real
atom_style      full
pair_style      lj/cut/coul/long 12.0  12.0
kspace_style    pppm 1e-4
bond_style      harmonic
angle_style     harmonic
dihedral_style  fourier
improper_style  cvff
special_bonds   amber
pair_modify     mix arithmetic
read_data       temp.lmps
  orthogonal box = (-70.0918 -70.0918 -70.0918) to (70.0918 70.0918 70.0918)
  reading atoms ...
  635 atoms
  reading velocities ...
  635 velocities
  scanning bonds ...
  scanning angles ...
  scanning dihedrals ...
  reading bonds ...
  634 bonds
  reading angles ...
  1228 angles
  reading dihedrals ...
  1753 dihedrals
################################################################################

min_style cg
minimize 1e-05 1e-05 10000 100000
PPPM initialization ...
  G vector (1/distance) = 0.133806
  grid = 20 20 20
  stencil order = 5
  estimated absolute RMS force accuracy = 0.0322134
  estimated relative force accuracy = 9.70098e-05
  3d grid and FFT values/proc = 2250 800
  update every 1 steps, delay 0 steps, check yes
Step Temp E_pair E_mol TotEng Press
0    317.89241   -1265.5398    205.96369   -458.81234    10.270873
Loop time of 0.338178 on 16 procs for 42 steps with 635 atoms

Minimization stats:
  Stopping criterion = linesearch alpha is zero
  Energy initial, next-to-last, final =
  Force two-norm initial, final = 46.7831 27.7853
  Force max component initial, final = 10.1195 4.40213
  Final line search alpha, max atom move = 1.01949e-11 4.48791e-11
  Iterations, force evaluations = 42 141

timestep        1
fix             pysimm_md all nvt temp 300 300 100
run             5000
PPPM initialization ...
  G vector (1/distance) = 0.133806
  grid = 20 20 20
  stencil order = 5
  estimated absolute RMS force accuracy = 0.0322134
  estimated relative force accuracy = 9.70098e-05
  3d grid and FFT values/proc = 2250 800
Step Temp E_pair E_mol TotEng Press
42    317.89241   -1274.7117    185.54458    -488.4034    9.2176187
Loop time of 3.467 on 16 procs for 5000 steps with 635 atoms

unfix pysimm_md
write_dump all custom pysimm.dump.tmp id q x y z vx vy vz
quit

################################################################################
##################################    Init    ##################################
################################################################################
units           real
atom_style      full
pair_style      lj/cut/coul/long 12.0  12.0
kspace_style    pppm 1e-4
bond_style      harmonic
angle_style     harmonic
dihedral_style  fourier
improper_style  cvff
special_bonds   amber
pair_modify     mix arithmetic
read_data       temp.lmps
  orthogonal box = (-99.4399 -99.4399 -99.4399) to (99.4399 99.4399 99.4399)
  reading atoms ...
  552 atoms
  reading velocities ...
  552 velocities
  scanning bonds ...
  scanning angles ...
  scanning dihedrals ...
  reading bonds ...
  551 bonds
  reading angles ...
  1066 angles
  reading dihedrals ...
  1506 dihedrals
################################################################################

min_style cg
minimize 1e-05 1e-05 10000 100000
PPPM initialization ...
  G vector (1/distance) = 0.12068
  grid = 24 24 24
  stencil order = 5
  estimated absolute RMS force accuracy = 0.0343414
  estimated relative force accuracy = 0.000103418
  3d grid and FFT values/proc = 3179 1152
  update every 1 steps, delay 0 steps, check yes
Step Temp E_pair E_mol TotEng Press
0    327.16299    -1229.397    205.69964    -486.3563    2.7548689
Loop time of 0.194662 on 16 procs for 17 steps with 552 atoms

Minimization stats:
  Stopping criterion = linesearch alpha is zero
  Energy initial, next-to-last, final =
  Force two-norm initial, final = 48.0361 38.87
  Force max component initial, final = 10.0404 10.3938
  Final line search alpha, max atom move = 7.50535e-12 7.8009e-11
  Iterations, force evaluations = 17 91

timestep        1
fix             pysimm_md all nvt temp 300 300 100
run             5000
PPPM initialization ...
  G vector (1/distance) = 0.12068
  grid = 24 24 24
  stencil order = 5
  estimated absolute RMS force accuracy = 0.0343414
  estimated relative force accuracy = 0.000103418
  3d grid and FFT values/proc = 3179 1152
Step Temp E_pair E_mol TotEng Press
17    327.16299   -1234.9015    195.69066   -501.86974    2.8130761
Loop time of 4.96901 on 16 procs for 5000 steps with 552 atoms

unfix pysimm_md
write_dump all custom pysimm.dump.tmp id q x y z vx vy vz
quit

################################################################################
##################################    Init    ##################################
################################################################################
units           real
atom_style      full
pair_style      lj/cut/coul/long 12.0  12.0
kspace_style    pppm 1e-4
bond_style      harmonic
angle_style     harmonic
dihedral_style  fourier
improper_style  cvff
special_bonds   amber
pair_modify     mix arithmetic
read_data       temp.lmps
  orthogonal box = (-100.802 -100.802 -100.802) to (100.802 100.802 100.802)
  reading atoms ...
  685 atoms
  reading velocities ...
  685 velocities
  scanning bonds ...
  scanning angles ...
  scanning dihedrals ...
  reading bonds ...
  684 bonds
  reading angles ...
  1326 angles
  reading dihedrals ...
  1884 dihedrals
################################################################################

min_style cg
minimize 1e-05 1e-05 10000 100000
PPPM initialization ...
  G vector (1/distance) = 0.11963
  grid = 24 24 24
  stencil order = 5
  estimated absolute RMS force accuracy = 0.0327846
  estimated relative force accuracy = 9.87299e-05
  3d grid and FFT values/proc = 3179 1152
  update every 1 steps, delay 0 steps, check yes
Step Temp E_pair E_mol TotEng Press
0    300.02258    -1433.433    226.78311   -594.94165    2.8562689
Loop time of 0.141123 on 16 procs for 5 steps with 685 atoms

Minimization stats:
  Stopping criterion = linesearch alpha is zero
  Energy initial, next-to-last, final =
  Force two-norm initial, final = 48.0857 33.5892
  Force max component initial, final = 13.3161 12.7059
  Final line search alpha, max atom move = 1.04373e-11 1.32614e-10
  Iterations, force evaluations = 5 69

timestep        1
fix             pysimm_md all nvt temp 300 300 100
run             5000
PPPM initialization ...
  G vector (1/distance) = 0.11963
  grid = 24 24 24
  stencil order = 5
  estimated absolute RMS force accuracy = 0.0327846
  estimated relative force accuracy = 9.87299e-05
  3d grid and FFT values/proc = 3179 1152
Step Temp E_pair E_mol TotEng Press
5    300.02258    -1434.129     224.7646   -597.65611    3.3618709
Loop time of 5.12911 on 16 procs for 5000 steps with 685 atoms

unfix pysimm_md
write_dump all custom pysimm.dump.tmp id q x y z vx vy vz
quit

################################################################################
##################################    Init    ##################################
################################################################################
units           real
atom_style      full
pair_style      lj/cut/coul/long 12.0  12.0
kspace_style    pppm 1e-4
bond_style      harmonic
angle_style     harmonic
dihedral_style  fourier
improper_style  cvff
special_bonds   amber
pair_modify     mix arithmetic
read_data       temp.lmps
  orthogonal box = (-73.0156 -73.0156 -73.0156) to (73.0156 73.0156 73.0156)
  reading atoms ...
  746 atoms
  reading velocities ...
  746 velocities
  scanning bonds ...
  scanning angles ...
  scanning dihedrals ...
  reading bonds ...
  745 bonds
  reading angles ...
  1445 angles
  reading dihedrals ...
  2057 dihedrals
################################################################################

min_style cg
minimize 1e-05 1e-05 10000 100000
PPPM initialization ...
  G vector (1/distance) = 0.13057
  grid = 20 20 20
  stencil order = 5
  estimated absolute RMS force accuracy = 0.035784
  estimated relative force accuracy = 0.000107762
  3d grid and FFT values/proc = 2250 800
  update every 1 steps, delay 0 steps, check yes
Step Temp E_pair E_mol TotEng Press
0    344.46438    -1630.368    267.63688   -597.77788    10.511358
Loop time of 0.227084 on 16 procs for 12 steps with 746 atoms

Minimization stats:
  Stopping criterion = linesearch alpha is zero
  Energy initial, next-to-last, final =
  Force two-norm initial, final = 46.9748 35.9871
  Force max component initial, final = 6.64895 5.95599
  Final line search alpha, max atom move = 8.4688e-12 5.04401e-11
  Iterations, force evaluations = 12 81

timestep        1
fix             pysimm_md all nvt temp 300 300 100
run             5000
PPPM initialization ...
  G vector (1/distance) = 0.13057
  grid = 20 20 20
  stencil order = 5
  estimated absolute RMS force accuracy = 0.035784
  estimated relative force accuracy = 0.000107762
  3d grid and FFT values/proc = 2250 800
Step Temp E_pair E_mol TotEng Press
12    344.46438   -1637.8642    264.05817   -608.85276    10.150702
Loop time of 5.77206 on 16 procs for 5000 steps with 746 atoms

unfix pysimm_md
write_dump all custom pysimm.dump.tmp id q x y z vx vy vz
quit

################################################################################
##################################    Init    ##################################
################################################################################
units           real
atom_style      full
pair_style      lj/cut/coul/long 12.0  12.0
kspace_style    pppm 1e-4
bond_style      harmonic
angle_style     harmonic
dihedral_style  fourier
improper_style  cvff
special_bonds   amber
pair_modify     mix arithmetic
read_data       temp.lmps
  orthogonal box = (-103.422 -103.422 -103.422) to (103.422 103.422 103.422)
  reading atoms ...
  639 atoms
  reading velocities ...
  639 velocities
  scanning bonds ...
  scanning angles ...
  scanning dihedrals ...
  reading bonds ...
  638 bonds
  reading angles ...
  1236 angles
  reading dihedrals ...
  1756 dihedrals
################################################################################

min_style cg
minimize 1e-05 1e-05 10000 100000
PPPM initialization ...
  G vector (1/distance) = 0.11766
  grid = 24 24 24
  stencil order = 5
  estimated absolute RMS force accuracy = 0.0375789
  estimated relative force accuracy = 0.000113168
  3d grid and FFT values/proc = 3179 1152
  update every 1 steps, delay 0 steps, check yes
Step Temp E_pair E_mol TotEng Press
0    302.50892   -1322.2371    219.61482   -527.32384    2.4272692
Loop time of 0.189668 on 16 procs for 11 steps with 639 atoms

Minimization stats:
  Stopping criterion = linesearch alpha is zero
  Energy initial, next-to-last, final =
  Force two-norm initial, final = 57.629 45.5785
  Force max component initial, final = 9.78908 15.7964
  Final line search alpha, max atom move = 4.95496e-12 7.82707e-11
  Iterations, force evaluations = 11 81

timestep        1
fix             pysimm_md all nvt temp 300 300 100
run             5000
PPPM initialization ...
  G vector (1/distance) = 0.11766
  grid = 24 24 24
  stencil order = 5
  estimated absolute RMS force accuracy = 0.0375789
  estimated relative force accuracy = 0.000113168
  3d grid and FFT values/proc = 3179 1152
Step Temp E_pair E_mol TotEng Press
11    302.50892   -1325.0763    210.44224   -539.33571    2.2979851
Loop time of 6.18384 on 16 procs for 5000 steps with 639 atoms

unfix pysimm_md
write_dump all custom pysimm.dump.tmp id q x y z vx vy vz
quit

################################################################################
##################################    Init    ##################################
################################################################################
units           real
atom_style      full
pair_style      lj/cut/coul/long 12.0  12.0
kspace_style    pppm 1e-4
bond_style      harmonic
angle_style     harmonic
dihedral_style  fourier
improper_style  cvff
special_bonds   amber
pair_modify     mix arithmetic
read_data       temp.lmps
  orthogonal box = (-104.683 -104.683 -104.683) to (104.683 104.683 104.683)
  reading atoms ...
  676 atoms
  reading velocities ...
  676 velocities
  scanning bonds ...
  scanning angles ...
  scanning dihedrals ...
  reading bonds ...
  675 bonds
  reading angles ...
  1308 angles
  reading dihedrals ...
  1848 dihedrals
################################################################################

min_style cg
minimize 1e-05 1e-05 10000 100000
PPPM initialization ...
  G vector (1/distance) = 0.116732
  grid = 24 24 24
  stencil order = 5
  estimated absolute RMS force accuracy = 0.0384092
  estimated relative force accuracy = 0.000115668
  3d grid and FFT values/proc = 3179 1152
  update every 1 steps, delay 0 steps, check yes
Step Temp E_pair E_mol TotEng Press
0    358.05908   -1451.0726    224.90055   -505.74043     3.609294
Loop time of 0.311966 on 16 procs for 38 steps with 676 atoms

Minimization stats:
  Stopping criterion = linesearch alpha is zero
  Energy initial, next-to-last, final =
  Force two-norm initial, final = 50.8702 31.593
  Force max component initial, final = 7.65882 4.31185
  Final line search alpha, max atom move = 8.22651e-12 3.54714e-11
  Iterations, force evaluations = 38 133

timestep        1
fix             pysimm_md all nvt temp 300 300 100
run             5000
PPPM initialization ...
  G vector (1/distance) = 0.116732
  grid = 24 24 24
  stencil order = 5
  estimated absolute RMS force accuracy = 0.0384092
  estimated relative force accuracy = 0.000115668
  3d grid and FFT values/proc = 3179 1152
Step Temp E_pair E_mol TotEng Press
38    358.05908   -1458.7577     196.2896   -542.03644    3.1663041
Loop time of 4.98223 on 16 procs for 5000 steps with 676 atoms

unfix pysimm_md
write_dump all custom pysimm.dump.tmp id q x y z vx vy vz
quit

################################################################################
##################################    Init    ##################################
################################################################################
units           real
atom_style      full
pair_style      lj/cut/coul/long 12.0  12.0
kspace_style    pppm 1e-4
bond_style      harmonic
angle_style     harmonic
dihedral_style  fourier
improper_style  cvff
special_bonds   amber
pair_modify     mix arithmetic
read_data       temp.lmps
  orthogonal box = (-105.915 -105.915 -105.915) to (105.915 105.915 105.915)
  reading atoms ...
  713 atoms
  reading velocities ...
  713 velocities
  scanning bonds ...
  scanning angles ...
  scanning dihedrals ...
  reading bonds ...
  712 bonds
  reading angles ...
  1380 angles
  reading dihedrals ...
  1955 dihedrals
################################################################################

min_style cg
minimize 1e-05 1e-05 10000 100000
PPPM initialization ...
  G vector (1/distance) = 0.11584
  grid = 24 24 24
  stencil order = 5
  estimated absolute RMS force accuracy = 0.0392347
  estimated relative force accuracy = 0.000118154
  3d grid and FFT values/proc = 3179 1152
  update every 1 steps, delay 0 steps, check yes
Step Temp E_pair E_mol TotEng Press
0    197.30384   -1577.5829     237.6231   -921.21456    0.9461221
Loop time of 0.249374 on 16 procs for 32 steps with 713 atoms

Minimization stats:
  Stopping criterion = linesearch alpha is zero
  Energy initial, next-to-last, final =
  Force two-norm initial, final = 60.3457 27.4037
  Force max component initial, final = 13.6194 5.03797
  Final line search alpha, max atom move = 1.22586e-11 6.17584e-11
  Iterations, force evaluations = 32 121

timestep        1
fix             pysimm_md all nvt temp 300 300 100
run             5000
PPPM initialization ...
  G vector (1/distance) = 0.11584
  grid = 24 24 24
  stencil order = 5
  estimated absolute RMS force accuracy = 0.0392347
  estimated relative force accuracy = 0.000118154
  3d grid and FFT values/proc = 3179 1152
Step Temp E_pair E_mol TotEng Press
32    197.30384   -1585.9802    213.92061   -953.31441    1.6013885
Loop time of 6.92078 on 16 procs for 5000 steps with 713 atoms

unfix pysimm_md
write_dump all custom pysimm.dump.tmp id q x y z vx vy vz
quit

################################################################################
##################################    Init    ##################################
################################################################################
units           real
atom_style      full
pair_style      lj/cut/coul/long 12.0  12.0
kspace_style    pppm 1e-4
bond_style      harmonic
angle_style     harmonic
dihedral_style  fourier
improper_style  cvff
special_bonds   amber
pair_modify     mix arithmetic
read_data       temp.lmps
  orthogonal box = (-76.5828 -76.5828 -76.5828) to (76.5828 76.5828 76.5828)
  reading atoms ...
  870 atoms
  reading velocities ...
  870 velocities
  scanning bonds ...
  scanning angles ...
  scanning dihedrals ...
  reading bonds ...
  869 bonds
  reading angles ...
  1685 angles
  reading dihedrals ...
  2393 dihedrals
################################################################################

min_style cg
minimize 1e-05 1e-05 10000 100000
PPPM initialization ...
  G vector (1/distance) = 0.141286
  grid = 24 24 24
  stencil order = 5
  estimated absolute RMS force accuracy = 0.0234068
  estimated relative force accuracy = 7.0489e-05
  3d grid and FFT values/proc = 3179 1152
  update every 1 steps, delay 0 steps, check yes
Loop time of 0.601347 on 16 procs for 50 steps with 870 atoms

Minimization stats:
  Stopping criterion = linesearch alpha is zero
  Energy initial, next-to-last, final =
  Force two-norm initial, final = 60.4067 24.7454
  Force max component initial, final = 16.9321 4.00619
  Final line search alpha, max atom move = 1.16347e-11 4.66107e-11
  Iterations, force evaluations = 50 157

timestep        1
fix             pysimm_md all nvt temp 300 300 100
run             5000
PPPM initialization ...
  G vector (1/distance) = 0.141286
  grid = 24 24 24
  stencil order = 5
  estimated absolute RMS force accuracy = 0.0234068
  estimated relative force accuracy = 7.0489e-05
  3d grid and FFT values/proc = 3179 1152
Loop time of 8.15811 on 16 procs for 5000 steps with 870 atoms

unfix pysimm_md
write_dump all custom pysimm.dump.tmp id q x y z vx vy vz
quit

################################################################################
##################################    Init    ##################################
################################################################################
units           real
atom_style      full
pair_style      lj/cut/coul/long 12.0  12.0
kspace_style    pppm 1e-4
bond_style      harmonic
angle_style     harmonic
dihedral_style  fourier
improper_style  cvff
special_bonds   amber
pair_modify     mix arithmetic
read_data       temp.lmps
  orthogonal box = (-108.296 -108.296 -108.296) to (108.296 108.296 108.296)
  reading atoms ...
  859 atoms
  reading velocities ...
  859 velocities
  scanning bonds ...
  scanning angles ...
  scanning dihedrals ...
  reading bonds ...
  858 bonds
  reading angles ...
  1665 angles
  reading dihedrals ...
  2366 dihedrals
################################################################################

min_style cg
minimize 1e-05 1e-05 10000 100000
PPPM initialization ...
  G vector (1/distance) = 0.114152
  grid = 24 24 24
  stencil order = 5
  estimated absolute RMS force accuracy = 0.0392165
  estimated relative force accuracy = 0.000118099
  3d grid and FFT values/proc = 3179 1152
  update every 1 steps, delay 0 steps, check yes
Loop time of 0.502219 on 16 procs for 37 steps with 859 atoms

Minimization stats:
  Stopping criterion = linesearch alpha is zero
  Energy initial, next-to-last, final =
  Force two-norm initial, final = 65.5314 32.6655
  Force max component initial, final = 14.9133 6.4694
  Final line search alpha, max atom move = 7.04922e-12 4.56042e-11
  Iterations, force evaluations = 37 133

timestep        1
fix             pysimm_md all nvt temp 300 300 100
run             5000
PPPM initialization ...
  G vector (1/distance) = 0.114152
  grid = 24 24 24
  stencil order = 5
  estimated absolute RMS force accuracy = 0.0392165
  estimated relative force accuracy = 0.000118099
  3d grid and FFT values/proc = 3179 1152
Loop time of 6.32775 on 16 procs for 5000 steps with 859 atoms

unfix pysimm_md
write_dump all custom pysimm.dump.tmp id q x y z vx vy vz
quit

################################################################################
##################################    Init    ##################################
################################################################################
units           real
atom_style      full
pair_style      lj/cut/coul/long 12.0  12.0
kspace_style    pppm 1e-4
bond_style      harmonic
angle_style     harmonic
dihedral_style  fourier
improper_style  cvff
special_bonds   amber
pair_modify     mix arithmetic
read_data       temp.lmps
  orthogonal box = (-78.2482 -78.2482 -78.2482) to (78.2482 78.2482 78.2482)
  reading atoms ...
  776 atoms
  reading velocities ...
  776 velocities
  scanning bonds ...
  scanning angles ...
  scanning dihedrals ...
  reading bonds ...
  775 bonds
  reading angles ...
  1500 angles
  reading dihedrals ...
  2129 dihedrals
################################################################################

min_style cg
minimize 1e-05 1e-05 10000 100000
PPPM initialization ...
  G vector (1/distance) = 0.139568
  grid = 24 24 24
  stencil order = 5
  estimated absolute RMS force accuracy = 0.0273025
  estimated relative force accuracy = 8.22206e-05
  3d grid and FFT values/proc = 3179 1152
  update every 1 steps, delay 0 steps, check yes
Loop time of 0.515299 on 16 procs for 66 steps with 776 atoms

Minimization stats:
  Stopping criterion = linesearch alpha is zero
  Energy initial, next-to-last, final =
  Force two-norm initial, final = 48.4246 20.1756
  Force max component initial, final = 10.9408 3.10506
  Final line search alpha, max atom move = 1.55105e-11 4.81611e-11
  Iterations, force evaluations = 66 189

timestep        1
fix             pysimm_md all nvt temp 300 300 100
run             5000
PPPM initialization ...
  G vector (1/distance) = 0.139568
  grid = 24 24 24
  stencil order = 5
  estimated absolute RMS force accuracy = 0.0273025
  estimated relative force accuracy = 8.22206e-05
  3d grid and FFT values/proc = 3179 1152
Loop time of 5.4072 on 16 procs for 5000 steps with 776 atoms

unfix pysimm_md
write_dump all custom pysimm.dump.tmp id q x y z vx vy vz
quit

################################################################################
##################################    Init    ##################################
################################################################################
units           real
atom_style      full
pair_style      lj/cut/coul/long 12.0  12.0
kspace_style    pppm 1e-4
bond_style      harmonic
angle_style     harmonic
dihedral_style  fourier
improper_style  cvff
special_bonds   amber
pair_modify     mix arithmetic
read_data       temp.lmps
  orthogonal box = (-79.0549 -79.0549 -79.0549) to (79.0549 79.0549 79.0549)
  reading atoms ...
  933 atoms
  reading velocities ...
  933 velocities
  scanning bonds ...
  scanning angles ...
  scanning dihedrals ...
  reading bonds ...
  932 bonds
  reading angles ...
  1807 angles
  reading dihedrals ...
  2571 dihedrals
################################################################################

min_style cg
minimize 1e-05 1e-05 10000 100000
PPPM initialization ...
  G vector (1/distance) = 0.138744
  grid = 24 24 24
  stencil order = 5
  estimated absolute RMS force accuracy = 0.0262441
  estimated relative force accuracy = 7.90333e-05
  3d grid and FFT values/proc = 3179 1152
  update every 1 steps, delay 0 steps, check yes
Loop time of 0.592296 on 16 procs for 65 steps with 933 atoms

Minimization stats:
  Stopping criterion = linesearch alpha is zero
  Energy initial, next-to-last, final =
  Force two-norm initial, final = 57.3045 28.3066
  Force max component initial, final = 16.6036 8.81849
  Final line search alpha, max atom move = 8.61745e-12 7.59929e-11
  Iterations, force evaluations = 65 187

timestep        1
fix             pysimm_md all nvt temp 300 300 100
run             5000
PPPM initialization ...
  G vector (1/distance) = 0.138744
  grid = 24 24 24
  stencil order = 5
  estimated absolute RMS force accuracy = 0.0262441
  estimated relative force accuracy = 7.90333e-05
  3d grid and FFT values/proc = 3179 1152
Loop time of 5.23216 on 16 procs for 5000 steps with 933 atoms

unfix pysimm_md
write_dump all custom pysimm.dump.tmp id q x y z vx vy vz
quit

################################################################################
##################################    Init    ##################################
################################################################################
units           real
atom_style      full
pair_style      lj/cut/coul/long 12.0  12.0
kspace_style    pppm 1e-4
bond_style      harmonic
angle_style     harmonic
dihedral_style  fourier
improper_style  cvff
special_bonds   amber
pair_modify     mix arithmetic
read_data       temp.lmps
  orthogonal box = (-79.8455 -79.8455 -79.8455) to (79.8455 79.8455 79.8455)
  reading atoms ...
  754 atoms
  reading velocities ...
  754 velocities
  scanning bonds ...
  scanning angles ...
  scanning dihedrals ...
  reading bonds ...
  753 bonds
  reading angles ...
  1456 angles
  reading dihedrals ...
  2052 dihedrals
################################################################################

min_style cg
minimize 1e-05 1e-05 10000 100000
PPPM initialization ...
  G vector (1/distance) = 0.137949
  grid = 24 24 24
  stencil order = 5
  estimated absolute RMS force accuracy = 0.0303828
  estimated relative force accuracy = 9.14969e-05
  3d grid and FFT values/proc = 3179 1152
  update every 1 steps, delay 0 steps, check yes
Loop time of 0.25637 on 16 procs for 30 steps with 754 atoms

Minimization stats:
  Stopping criterion = energy tolerance
  Energy initial, next-to-last, final =
  Force two-norm initial, final = 57.8898 44.1323
  Force max component initial, final = 11.2195 15.1489
  Final line search alpha, max atom move = 0.00415736 0.0629793
  Iterations, force evaluations = 30 60

timestep        1
fix             pysimm_md all nvt temp 300 300 100
run             5000
PPPM initialization ...
  G vector (1/distance) = 0.137949
  grid = 24 24 24
  stencil order = 5
  estimated absolute RMS force accuracy = 0.0303828
  estimated relative force accuracy = 9.14969e-05
  3d grid and FFT values/proc = 3179 1152
Loop time of 7.49735 on 16 procs for 5000 steps with 754 atoms

unfix pysimm_md
write_dump all custom pysimm.dump.tmp id q x y z vx vy vz
quit

################################################################################
##################################    Init    ##################################
################################################################################
units           real
atom_style      full
pair_style      lj/cut/coul/long 12.0  12.0
kspace_style    pppm 1e-4
bond_style      harmonic
angle_style     harmonic
dihedral_style  fourier
improper_style  cvff
special_bonds   amber
pair_modify     mix arithmetic
read_data       temp.lmps
  orthogonal box = (-80.6208 -80.6208 -80.6208) to (80.6208 80.6208 80.6208)
  reading atoms ...
  911 atoms
  reading velocities ...
  911 velocities
  scanning bonds ...
  scanning angles ...
  scanning dihedrals ...
  reading bonds ...
  910 bonds
  reading angles ...
  1764 angles
  reading dihedrals ...
  2487 dihedrals
################################################################################

min_style cg
minimize 1e-05 1e-05 10000 100000
PPPM initialization ...
  G vector (1/distance) = 0.137178
  grid = 24 24 24
  stencil order = 5
  estimated absolute RMS force accuracy = 0.0290366
  estimated relative force accuracy = 8.74429e-05
  3d grid and FFT values/proc = 3179 1152
  update every 1 steps, delay 0 steps, check yes
Loop time of 0.556208 on 16 procs for 67 steps with 911 atoms

Minimization stats:
  Stopping criterion = linesearch alpha is zero
  Energy initial, next-to-last, final =
  Force two-norm initial, final = 54.2103 24.4382
  Force max component initial, final = 12.7413 5.4582
  Final line search alpha, max atom move = 1.31503e-11 7.17771e-11
  Iterations, force evaluations = 67 191

timestep        1
fix             pysimm_md all nvt temp 300 300 100
run             5000
PPPM initialization ...
  G vector (1/distance) = 0.137178
  grid = 24 24 24
  stencil order = 5
  estimated absolute RMS force accuracy = 0.0290366
  estimated relative force accuracy = 8.74429e-05
  3d grid and FFT values/proc = 3179 1152
Loop time of 5.62621 on 16 procs for 5000 steps with 911 atoms

unfix pysimm_md
write_dump all custom pysimm.dump.tmp id q x y z vx vy vz
quit

################################################################################
##################################    Init    ##################################
################################################################################
units           real
atom_style      full
pair_style      lj/cut/coul/long 12.0  12.0
kspace_style    pppm 1e-4
bond_style      harmonic
angle_style     harmonic
dihedral_style  fourier
improper_style  cvff
special_bonds   amber
pair_modify     mix arithmetic
read_data       temp.lmps
  orthogonal box = (-81.3814 -81.3814 -81.3814) to (81.3814 81.3814 81.3814)
  reading atoms ...
  804 atoms
  reading velocities ...
  804 velocities
  scanning bonds ...
  scanning angles ...
  scanning dihedrals ...
  reading bonds ...
  803 bonds
  reading angles ...
  1553 angles
  reading dihedrals ...
  2187 dihedrals
################################################################################

min_style cg
minimize 1e-05 1e-05 10000 100000
PPPM initialization ...
  G vector (1/distance) = 0.136429
  grid = 24 24 24
  stencil order = 5
  estimated absolute RMS force accuracy = 0.0321549
  estimated relative force accuracy = 9.68335e-05
  3d grid and FFT values/proc = 3179 1152
  update every 1 steps, delay 0 steps, check yes
Loop time of 0.745084 on 16 procs for 51 steps with 804 atoms

Minimization stats:
  Stopping criterion = linesearch alpha is zero
  Energy initial, next-to-last, final =
  Force two-norm initial, final = 56.0167 29.9306
  Force max component initial, final = 9.45693 8.56952
  Final line search alpha, max atom move = 9.03589e-12 7.74332e-11
  Iterations, force evaluations = 51 159

timestep        1
fix             pysimm_md all nvt temp 300 300 100
run             5000
PPPM initialization ...
  G vector (1/distance) = 0.136429
  grid = 24 24 24
  stencil order = 5
  estimated absolute RMS force accuracy = 0.0321549
  estimated relative force accuracy = 9.68335e-05
  3d grid and FFT values/proc = 3179 1152
Loop time of 8.94242 on 16 procs for 5000 steps with 804 atoms

unfix pysimm_md
write_dump all custom pysimm.dump.tmp id q x y z vx vy vz
quit

################################################################################
##################################    Init    ##################################
################################################################################
units           real
atom_style      full
pair_style      lj/cut/coul/long 12.0  12.0
kspace_style    pppm 1e-4
bond_style      harmonic
angle_style     harmonic
dihedral_style  fourier
improper_style  cvff
special_bonds   amber
pair_modify     mix arithmetic
read_data       temp.lmps
  orthogonal box = (-114.875 -114.875 -114.875) to (114.875 114.875 114.875)
  reading atoms ...
  985 atoms
  reading velocities ...
  985 velocities
  scanning bonds ...
  scanning angles ...
  scanning dihedrals ...
  reading bonds ...
  984 bonds
  reading angles ...
  1909 angles
  reading dihedrals ...
  2707 dihedrals
################################################################################

min_style cg
minimize 1e-05 1e-05 10000 100000
PPPM initialization ...
  G vector (1/distance) = 0.118638
  grid = 27 27 27
  stencil order = 5
  estimated absolute RMS force accuracy = 0.0343828
  estimated relative force accuracy = 0.000103543
  3d grid and FFT values/proc = 4332 1458
  update every 1 steps, delay 0 steps, check yes
Loop time of 0.652527 on 16 procs for 34 steps with 985 atoms

Minimization stats:
  Stopping criterion = linesearch alpha is zero
  Energy initial, next-to-last, final =
  Force two-norm initial, final = 59.9186 33.236
  Force max component initial, final = 16.3733 8.45603
  Final line search alpha, max atom move = 9.64063e-12 8.15214e-11
  Iterations, force evaluations = 34 125

timestep        1
fix             pysimm_md all nvt temp 300 300 100
run             5000
PPPM initialization ...
  G vector (1/distance) = 0.118638
  grid = 27 27 27
  stencil order = 5
  estimated absolute RMS force accuracy = 0.0343828
  estimated relative force accuracy = 0.000103543
  3d grid and FFT values/proc = 4332 1458
Loop time of 8.83764 on 16 procs for 5000 steps with 985 atoms

unfix pysimm_md
write_dump all custom pysimm.dump.tmp id q x y z vx vy vz
quit

################################################################################
##################################    Init    ##################################
################################################################################
units           real
atom_style      full
pair_style      lj/cut/coul/long 12.0  12.0
kspace_style    pppm 1e-4
bond_style      harmonic
angle_style     harmonic
dihedral_style  fourier
improper_style  cvff
special_bonds   amber
pair_modify     mix arithmetic
read_data       temp.lmps
  orthogonal box = (-115.9 -115.9 -115.9) to (115.9 115.9 115.9)
  reading atoms ...
  998 atoms
  reading velocities ...
  998 velocities
  scanning bonds ...
  scanning angles ...
  scanning dihedrals ...
  reading bonds ...
  997 bonds
  reading angles ...
  1933 angles
  reading dihedrals ...
  2752 dihedrals
################################################################################

min_style cg
minimize 1e-05 1e-05 10000 100000
PPPM initialization ...
  G vector (1/distance) = 0.117956
  grid = 27 27 27
  stencil order = 5
  estimated absolute RMS force accuracy = 0.0354166
  estimated relative force accuracy = 0.000106656
  3d grid and FFT values/proc = 4332 1458
  update every 1 steps, delay 0 steps, check yes
Loop time of 0.591972 on 16 procs for 31 steps with 998 atoms

Minimization stats:
  Stopping criterion = linesearch alpha is zero
  Energy initial, next-to-last, final =
  Force two-norm initial, final = 77.7838 45.793
  Force max component initial, final = 25.1342 9.68588
  Final line search alpha, max atom move = 3.33005e-12 3.22545e-11
  Iterations, force evaluations = 31 121

timestep        1
fix             pysimm_md all nvt temp 300 300 100
run             5000
PPPM initialization ...
  G vector (1/distance) = 0.117956
  grid = 27 27 27
  stencil order = 5
  estimated absolute RMS force accuracy = 0.0354166
  estimated relative force accuracy = 0.000106656
  3d grid and FFT values/proc = 4332 1458
Loop time of 8.98443 on 16 procs for 5000 steps with 998 atoms

unfix pysimm_md
write_dump all custom pysimm.dump.tmp id q x y z vx vy vz
quit

################################################################################
##################################    Init    ##################################
################################################################################
units           real
atom_style      full
pair_style      lj/cut/coul/long 12.0  12.0
kspace_style    pppm 1e-4
bond_style      harmonic
angle_style     harmonic
dihedral_style  fourier
improper_style  cvff
special_bonds   amber
pair_modify     mix arithmetic
read_data       temp.lmps
  orthogonal box = (-83.5819 -83.5819 -83.5819) to (83.5819 83.5819 83.5819)
  reading atoms ...
  963 atoms
  reading velocities ...
  963 velocities
  scanning bonds ...
  scanning angles ...
  scanning dihedrals ...
  reading bonds ...
  962 bonds
  reading angles ...
  1863 angles
  reading dihedrals ...
  2646 dihedrals
################################################################################

min_style cg
minimize 1e-05 1e-05 10000 100000
PPPM initialization ...
  G vector (1/distance) = 0.134306
  grid = 24 24 24
  stencil order = 5
  estimated absolute RMS force accuracy = 0.0333049
  estimated relative force accuracy = 0.000100297
  3d grid and FFT values/proc = 3179 1152
  update every 1 steps, delay 0 steps, check yes
Loop time of 0.601506 on 16 procs for 89 steps with 963 atoms

Minimization stats:
  Stopping criterion = linesearch alpha is zero
  Energy initial, next-to-last, final =
  Force two-norm initial, final = 55.7257 18.9617
  Force max component initial, final = 20.9684 3.47868
  Final line search alpha, max atom move = 2.86804e-11 9.97699e-11
  Iterations, force evaluations = 89 233

timestep        1
fix             pysimm_md all nvt temp 300 300 100
run             5000
PPPM initialization ...
  G vector (1/distance) = 0.134306
  grid = 24 24 24
  stencil order = 5
  estimated absolute RMS force accuracy = 0.0333049
  estimated relative force accuracy = 0.000100297
  3d grid and FFT values/proc = 3179 1152
Loop time of 5.61269 on 16 procs for 5000 steps with 963 atoms

unfix pysimm_md
write_dump all custom pysimm.dump.tmp id q x y z vx vy vz
quit

################################################################################
##################################    Init    ##################################
################################################################################
units           real
atom_style      full
pair_style      lj/cut/coul/long 12.0  12.0
kspace_style    pppm 1e-4
bond_style      harmonic
angle_style     harmonic
dihedral_style  fourier
improper_style  cvff
special_bonds   amber
pair_modify     mix arithmetic
read_data       temp.lmps
  orthogonal box = (-84.2903 -84.2903 -84.2903) to (84.2903 84.2903 84.2903)
  reading atoms ...
  904 atoms
  reading velocities ...
  904 velocities
  scanning bonds ...
  scanning angles ...
  scanning dihedrals ...
  reading bonds ...
  903 bonds
  reading angles ...
  1747 angles
  reading dihedrals ...
  2467 dihedrals
################################################################################

min_style cg
minimize 1e-05 1e-05 10000 100000
PPPM initialization ...
  G vector (1/distance) = 0.13364
  grid = 24 24 24
  stencil order = 5
  estimated absolute RMS force accuracy = 0.0356442
  estimated relative force accuracy = 0.000107341
  3d grid and FFT values/proc = 3179 1152
  update every 1 steps, delay 0 steps, check yes
Loop time of 0.35903 on 16 procs for 23 steps with 904 atoms

Minimization stats:
  Stopping criterion = linesearch alpha is zero
  Energy initial, next-to-last, final =
  Force two-norm initial, final = 58.9115 31.3804
  Force max component initial, final = 18.2214 5.75277
  Final line search alpha, max atom move = 6.85025e-12 3.94079e-11
  Iterations, force evaluations = 23 105

timestep        1
fix             pysimm_md all nvt temp 300 300 100
run             5000
PPPM initialization ...
  G vector (1/distance) = 0.13364
  grid = 24 24 24
  stencil order = 5
  estimated absolute RMS force accuracy = 0.0356442
  estimated relative force accuracy = 0.000107341
  3d grid and FFT values/proc = 3179 1152
Loop time of 7.82525 on 16 procs for 5000 steps with 904 atoms

unfix pysimm_md
write_dump all custom pysimm.dump.tmp id q x y z vx vy vz
quit

################################################################################
##################################    Init    ##################################
################################################################################
units           real
atom_style      full
pair_style      lj/cut/coul/long 12.0  12.0
kspace_style    pppm 1e-4
bond_style      harmonic
angle_style     harmonic
dihedral_style  fourier
improper_style  cvff
special_bonds   amber
pair_modify     mix arithmetic
read_data       temp.lmps
  orthogonal box = (-84.9869 -84.9869 -84.9869) to (84.9869 84.9869 84.9869)
  reading atoms ...
  1037 atoms
  reading velocities ...
  1037 velocities
  scanning bonds ...
  scanning angles ...
  scanning dihedrals ...
  reading bonds ...
  1036 bonds
  reading angles ...
  2007 angles
  reading dihedrals ...
  2835 dihedrals
################################################################################

min_style cg
minimize 1e-05 1e-05 10000 100000
PPPM initialization ...
  G vector (1/distance) = 0.132983
  grid = 24 24 24
  stencil order = 5
  estimated absolute RMS force accuracy = 0.0346491
  estimated relative force accuracy = 0.000104345
  3d grid and FFT values/proc = 3179 1152
  update every 1 steps, delay 0 steps, check yes
Loop time of 0.408239 on 16 procs for 45 steps with 1037 atoms

Minimization stats:
  Stopping criterion = linesearch alpha is zero
  Energy initial, next-to-last, final =
  Force two-norm initial, final = 76.1742 41.153
  Force max component initial, final = 22.8602 12.3891
  Final line search alpha, max atom move = 7.23905e-12 8.96855e-11
  Iterations, force evaluations = 45 147

timestep        1
fix             pysimm_md all nvt temp 300 300 100
run             5000
PPPM initialization ...
  G vector (1/distance) = 0.132983
  grid = 24 24 24
  stencil order = 5
  estimated absolute RMS force accuracy = 0.0346491
  estimated relative force accuracy = 0.000104345
  3d grid and FFT values/proc = 3179 1152
Loop time of 9.12649 on 16 procs for 5000 steps with 1037 atoms

unfix pysimm_md
write_dump all custom pysimm.dump.tmp id q x y z vx vy vz
quit

################################################################################
##################################    Init    ##################################
################################################################################
units           real
atom_style      full
pair_style      lj/cut/coul/long 12.0  12.0
kspace_style    pppm 1e-4
bond_style      harmonic
angle_style     harmonic
dihedral_style  fourier
improper_style  cvff
special_bonds   amber
pair_modify     mix arithmetic
read_data       temp.lmps
  orthogonal box = (-119.832 -119.832 -119.832) to (119.832 119.832 119.832)
  reading atoms ...
  1026 atoms
  reading velocities ...
  1026 velocities
  scanning bonds ...
  scanning angles ...
  scanning dihedrals ...
  reading bonds ...
  1025 bonds
  reading angles ...
  1987 angles
  reading dihedrals ...
  2823 dihedrals
################################################################################

min_style cg
minimize 1e-05 1e-05 10000 100000
PPPM initialization ...
  G vector (1/distance) = 0.115408
  grid = 27 27 27
  stencil order = 5
  estimated absolute RMS force accuracy = 0.0399244
  estimated relative force accuracy = 0.000120231
  3d grid and FFT values/proc = 4332 1458
  update every 1 steps, delay 0 steps, check yes
Loop time of 0.430997 on 16 procs for 36 steps with 1026 atoms

Minimization stats:
  Stopping criterion = linesearch alpha is zero
  Energy initial, next-to-last, final =
  Force two-norm initial, final = 52.7108 45.4724
  Force max component initial, final = 9.16959 8.24738
  Final line search alpha, max atom move = 5.42909e-12 4.47758e-11
  Iterations, force evaluations = 36 129

timestep        1
fix             pysimm_md all nvt temp 300 300 100
run             5000
PPPM initialization ...
  G vector (1/distance) = 0.115408
  grid = 27 27 27
  stencil order = 5
  estimated absolute RMS force accuracy = 0.0399244
  estimated relative force accuracy = 0.000120231
  3d grid and FFT values/proc = 4332 1458
Loop time of 7.46844 on 16 procs for 5000 steps with 1026 atoms

unfix pysimm_md
write_dump all custom pysimm.dump.tmp id q x y z vx vy vz
quit

################################################################################
##################################    Init    ##################################
################################################################################
units           real
atom_style      full
pair_style      lj/cut/coul/long 12.0  12.0
kspace_style    pppm 1e-4
bond_style      harmonic
angle_style     harmonic
dihedral_style  fourier
improper_style  cvff
special_bonds   amber
pair_modify     mix arithmetic
read_data       temp.lmps
  orthogonal box = (-120.776 -120.776 -120.776) to (120.776 120.776 120.776)
  reading atoms ...
  1111 atoms
  reading velocities ...
  1111 velocities
  scanning bonds ...
  scanning angles ...
  scanning dihedrals ...
  reading bonds ...
  1110 bonds
  reading angles ...
  2152 angles
  reading dihedrals ...
  3055 dihedrals
################################################################################

min_style cg
minimize 1e-05 1e-05 10000 100000
PPPM initialization ...
  G vector (1/distance) = 0.114812
  grid = 27 27 27
  stencil order = 5
  estimated absolute RMS force accuracy = 0.0396565
  estimated relative force accuracy = 0.000119424
  3d grid and FFT values/proc = 4332 1458
  update every 1 steps, delay 0 steps, check yes
Loop time of 0.607608 on 16 procs for 4 steps with 1111 atoms

Minimization stats:
  Stopping criterion = linesearch alpha is zero
  Energy initial, next-to-last, final =
  Force two-norm initial, final = 68.7656 46.7919
  Force max component initial, final = 10.2534 11.7249
  Final line search alpha, max atom move = 3.85418e-12 4.519e-11
  Iterations, force evaluations = 4 69

timestep        1
fix             pysimm_md all nvt temp 300 300 100
run             5000
PPPM initialization ...
  G vector (1/distance) = 0.114812
  grid = 27 27 27
  stencil order = 5
  estimated absolute RMS force accuracy = 0.0396565
  estimated relative force accuracy = 0.000119424
  3d grid and FFT values/proc = 4332 1458
Loop time of 16.422 on 16 procs for 5000 steps with 1111 atoms

unfix pysimm_md
write_dump all custom pysimm.dump.tmp id q x y z vx vy vz
quit

################################################################################
##################################    Init    ##################################
################################################################################
units           real
atom_style      full
pair_style      lj/cut/coul/long 12.0  12.0
kspace_style    pppm 1e-4
bond_style      harmonic
angle_style     harmonic
dihedral_style  fourier
improper_style  cvff
special_bonds   amber
pair_modify     mix arithmetic
read_data       temp.lmps
  orthogonal box = (-87.0112 -87.0112 -87.0112) to (87.0112 87.0112 87.0112)
  reading atoms ...
  1076 atoms
  reading velocities ...
  1076 velocities
  scanning bonds ...
  scanning angles ...
  scanning dihedrals ...
  reading bonds ...
  1075 bonds
  reading angles ...
  2082 angles
  reading dihedrals ...
  2954 dihedrals
################################################################################

min_style cg
minimize 1e-05 1e-05 10000 100000
PPPM initialization ...
  G vector (1/distance) = 0.131122
  grid = 24 24 24
  stencil order = 5
  estimated absolute RMS force accuracy = 0.0377921
  estimated relative force accuracy = 0.00011381
  3d grid and FFT values/proc = 3179 1152
  update every 1 steps, delay 0 steps, check yes
Loop time of 0.106488 on 16 procs for 10 steps with 1076 atoms

Minimization stats:
  Stopping criterion = energy tolerance
  Energy initial, next-to-last, final =
  Force two-norm initial, final = 55.932 47.2946
  Force max component initial, final = 10.1984 12.893
  Final line search alpha, max atom move = 0.00518744 0.0668815
  Iterations, force evaluations = 10 20

timestep        1
fix             pysimm_md all nvt temp 300 300 100
run             5000
PPPM initialization ...
  G vector (1/distance) = 0.131122
  grid = 24 24 24
  stencil order = 5
  estimated absolute RMS force accuracy = 0.0377921
  estimated relative force accuracy = 0.00011381
  3d grid and FFT values/proc = 3179 1152
Loop time of 8.17335 on 16 procs for 5000 steps with 1076 atoms

unfix pysimm_md
write_dump all custom pysimm.dump.tmp id q x y z vx vy vz
quit

################################################################################
##################################    Init    ##################################
################################################################################
units           real
atom_style      full
pair_style      lj/cut/coul/long 12.0  12.0
kspace_style    pppm 1e-4
bond_style      harmonic
angle_style     harmonic
dihedral_style  fourier
improper_style  cvff
special_bonds   amber
pair_modify     mix arithmetic
read_data       temp.lmps
  orthogonal box = (-122.62 -122.62 -122.62) to (122.62 122.62 122.62)
  reading atoms ...
  1113 atoms
  reading velocities ...
  1113 velocities
  scanning bonds ...
  scanning angles ...
  scanning dihedrals ...
  reading bonds ...
  1112 bonds
  reading angles ...
  2155 angles
  reading dihedrals ...
  3052 dihedrals
################################################################################

min_style cg
minimize 1e-05 1e-05 10000 100000
PPPM initialization ...
  G vector (1/distance) = 0.121732
  grid = 30 30 30
  stencil order = 5
  estimated absolute RMS force accuracy = 0.0319823
  estimated relative force accuracy = 9.63136e-05
  3d grid and FFT values/proc = 5200 1800
  update every 1 steps, delay 0 steps, check yes
Loop time of 0.499698 on 16 procs for 20 steps with 1113 atoms

Minimization stats:
  Stopping criterion = linesearch alpha is zero
  Energy initial, next-to-last, final =
  Force two-norm initial, final = 59.812 44.0153
  Force max component initial, final = 8.81184 13.0599
  Final line search alpha, max atom move = 3.75339e-12 4.9019e-11
  Iterations, force evaluations = 20 99

timestep        1
fix             pysimm_md all nvt temp 300 300 100
run             5000
PPPM initialization ...
  G vector (1/distance) = 0.121732
  grid = 30 30 30
  stencil order = 5
  estimated absolute RMS force accuracy = 0.0319823
  estimated relative force accuracy = 9.63136e-05
  3d grid and FFT values/proc = 5200 1800
Loop time of 10.0931 on 16 procs for 5000 steps with 1113 atoms

unfix pysimm_md
write_dump all custom pysimm.dump.tmp id q x y z vx vy vz
quit

################################################################################
##################################    Init    ##################################
################################################################################
units           real
atom_style      full
pair_style      lj/cut/coul/long 12.0  12.0
kspace_style    pppm 1e-4
bond_style      harmonic
angle_style     harmonic
dihedral_style  fourier
improper_style  cvff
special_bonds   amber
pair_modify     mix arithmetic
read_data       temp.lmps
  orthogonal box = (-88.3101 -88.3101 -88.3101) to (88.3101 88.3101 88.3101)
  reading atoms ...
  1246 atoms
  reading velocities ...
  1246 velocities
  scanning bonds ...
  scanning angles ...
  scanning dihedrals ...
  reading bonds ...
  1245 bonds
  reading angles ...
  2414 angles
  reading dihedrals ...
  3439 dihedrals
################################################################################

min_style cg
minimize 1e-05 1e-05 10000 100000
PPPM initialization ...
  G vector (1/distance) = 0.129953
  grid = 24 24 24
  stencil order = 5
  estimated absolute RMS force accuracy = 0.0376318
  estimated relative force accuracy = 0.000113327
  3d grid and FFT values/proc = 3179 1152
  update every 1 steps, delay 0 steps, check yes
Loop time of 0.623613 on 16 procs for 21 steps with 1246 atoms

Minimization stats:
  Stopping criterion = linesearch alpha is zero
  Energy initial, next-to-last, final =
  Force two-norm initial, final = 75.6218 51.1398
  Force max component initial, final = 11.8581 11.1705
  Final line search alpha, max atom move = 2.78225e-12 3.1079e-11
  Iterations, force evaluations = 21 101

timestep        1
fix             pysimm_md all nvt temp 300 300 100
run             5000
PPPM initialization ...
  G vector (1/distance) = 0.129953
  grid = 24 24 24
  stencil order = 5
  estimated absolute RMS force accuracy = 0.0376318
  estimated relative force accuracy = 0.000113327
  3d grid and FFT values/proc = 3179 1152
Loop time of 11.4748 on 16 procs for 5000 steps with 1246 atoms

unfix pysimm_md
write_dump all custom pysimm.dump.tmp id q x y z vx vy vz
quit

################################################################################
##################################    Init    ##################################
################################################################################
units           real
atom_style      full
pair_style      lj/cut/coul/long 12.0  12.0
kspace_style    pppm 1e-4
bond_style      harmonic
angle_style     harmonic
dihedral_style  fourier
improper_style  cvff
special_bonds   amber
pair_modify     mix arithmetic
read_data       temp.lmps
  orthogonal box = (-88.9454 -88.9454 -88.9454) to (88.9454 88.9454 88.9454)
  reading atoms ...
  1091 atoms
  reading velocities ...
  1091 velocities
  scanning bonds ...
  scanning angles ...
  scanning dihedrals ...
  reading bonds ...
  1090 bonds
  reading angles ...
  2111 angles
  reading dihedrals ...
  2977 dihedrals
################################################################################

min_style cg
minimize 1e-05 1e-05 10000 100000
PPPM initialization ...
  G vector (1/distance) = 0.132613
  grid = 25 25 25
  stencil order = 5
  estimated absolute RMS force accuracy = 0.0366055
  estimated relative force accuracy = 0.000110236
  3d grid and FFT values/proc = 3888 1250
  update every 1 steps, delay 0 steps, check yes
Loop time of 0.996102 on 16 procs for 63 steps with 1091 atoms

Minimization stats:
  Stopping criterion = linesearch alpha is zero
  Energy initial, next-to-last, final =
  Force two-norm initial, final = 64.9856 31.2455
  Force max component initial, final = 19.5014 9.79185
  Final line search alpha, max atom move = 7.53546e-12 7.37861e-11
  Iterations, force evaluations = 63 239

timestep        1
fix             pysimm_md all nvt temp 300 300 100
run             5000
PPPM initialization ...
  G vector (1/distance) = 0.132613
  grid = 25 25 25
  stencil order = 5
  estimated absolute RMS force accuracy = 0.0366055
  estimated relative force accuracy = 0.000110236
  3d grid and FFT values/proc = 3888 1250
Loop time of 9.5339 on 16 procs for 5000 steps with 1091 atoms

unfix pysimm_md
write_dump all custom pysimm.dump.tmp id q x y z vx vy vz
quit

################################################################################
##################################    Init    ##################################
################################################################################
units           real
atom_style      full
pair_style      lj/cut/coul/long 12.0  12.0
kspace_style    pppm 1e-4
bond_style      harmonic
angle_style     harmonic
dihedral_style  fourier
improper_style  cvff
special_bonds   amber
pair_modify     mix arithmetic
read_data       temp.lmps
  orthogonal box = (-125.286 -125.286 -125.286) to (125.286 125.286 125.286)
  reading atoms ...
  1296 atoms
  reading velocities ...
  1296 velocities
  scanning bonds ...
  scanning angles ...
  scanning dihedrals ...
  reading bonds ...
  1295 bonds
  reading angles ...
  2512 angles
  reading dihedrals ...
  3580 dihedrals
################################################################################

min_style cg
minimize 1e-05 1e-05 10000 100000
PPPM initialization ...
  G vector (1/distance) = 0.120069
  grid = 30 30 30
  stencil order = 5
  estimated absolute RMS force accuracy = 0.0325152
  estimated relative force accuracy = 9.79186e-05
  3d grid and FFT values/proc = 5200 1800
  update every 1 steps, delay 0 steps, check yes
Loop time of 0.328612 on 16 procs for 21 steps with 1296 atoms

Minimization stats:
  Stopping criterion = linesearch alpha is zero
  Energy initial, next-to-last, final =
  Force two-norm initial, final = 70.0592 42.6923
  Force max component initial, final = 16.7491 6.31396
  Final line search alpha, max atom move = 4.46816e-12 2.82118e-11
  Iterations, force evaluations = 21 101

timestep        1
fix             pysimm_md all nvt temp 300 300 100
run             5000
PPPM initialization ...
  G vector (1/distance) = 0.120069
  grid = 30 30 30
  stencil order = 5
  estimated absolute RMS force accuracy = 0.0325152
  estimated relative force accuracy = 9.79186e-05
  3d grid and FFT values/proc = 5200 1800
Loop time of 7.69115 on 16 procs for 5000 steps with 1296 atoms

unfix pysimm_md
write_dump all custom pysimm.dump.tmp id q x y z vx vy vz
quit

################################################################################
##################################    Init    ##################################
################################################################################
units           real
atom_style      full
pair_style      lj/cut/coul/long 12.0  12.0
kspace_style    pppm 1e-4
bond_style      harmonic
angle_style     harmonic
dihedral_style  fourier
improper_style  cvff
special_bonds   amber
pair_modify     mix arithmetic
read_data       temp.lmps
  orthogonal box = (-90.1896 -90.1896 -90.1896) to (90.1896 90.1896 90.1896)
  reading atoms ...
  1045 atoms
  reading velocities ...
  1045 velocities
  scanning bonds ...
  scanning angles ...
  scanning dihedrals ...
  reading bonds ...
  1044 bonds
  reading angles ...
  2019 angles
  reading dihedrals ...
  2833 dihedrals
################################################################################

min_style cg
minimize 1e-05 1e-05 10000 100000
PPPM initialization ...
  G vector (1/distance) = 0.131512
  grid = 25 25 25
  stencil order = 5
  estimated absolute RMS force accuracy = 0.0397376
  estimated relative force accuracy = 0.000119669
  3d grid and FFT values/proc = 3888 1250
  update every 1 steps, delay 0 steps, check yes
Loop time of 0.334973 on 16 procs for 23 steps with 1045 atoms

Minimization stats:
  Stopping criterion = linesearch alpha is zero
  Energy initial, next-to-last, final =
  Force two-norm initial, final = 56.8009 44.153
  Force max component initial, final = 9.27839 12.3854
  Final line search alpha, max atom move = 3.92519e-12 4.86149e-11
  Iterations, force evaluations = 23 105

timestep        1
fix             pysimm_md all nvt temp 300 300 100
run             5000
PPPM initialization ...
  G vector (1/distance) = 0.131512
  grid = 25 25 25
  stencil order = 5
  estimated absolute RMS force accuracy = 0.0397376
  estimated relative force accuracy = 0.000119669
  3d grid and FFT values/proc = 3888 1250
Loop time of 7.20848 on 16 procs for 5000 steps with 1045 atoms

unfix pysimm_md
write_dump all custom pysimm.dump.tmp id q x y z vx vy vz
quit

################################################################################
##################################    Init    ##################################
################################################################################
units           real
atom_style      full
pair_style      lj/cut/coul/long 12.0  12.0
kspace_style    pppm 1e-4
bond_style      harmonic
angle_style     harmonic
dihedral_style  fourier
improper_style  cvff
special_bonds   amber
pair_modify     mix arithmetic
read_data       temp.lmps
  orthogonal box = (-90.799 -90.799 -90.799) to (90.799 90.799 90.799)
  reading atoms ...
  1202 atoms
  reading velocities ...
  1202 velocities
  scanning bonds ...
  scanning angles ...
  scanning dihedrals ...
  reading bonds ...
  1201 bonds
  reading angles ...
  2326 angles
  reading dihedrals ...
  3290 dihedrals
################################################################################

min_style cg
minimize 1e-05 1e-05 10000 100000
PPPM initialization ...
  G vector (1/distance) = 0.13098
  grid = 25 25 25
  stencil order = 5
  estimated absolute RMS force accuracy = 0.0383029
  estimated relative force accuracy = 0.000115348
  3d grid and FFT values/proc = 3888 1250
  update every 1 steps, delay 0 steps, check yes
Loop time of 0.690509 on 16 procs for 32 steps with 1202 atoms

Minimization stats:
  Stopping criterion = linesearch alpha is zero
  Energy initial, next-to-last, final =
  Force two-norm initial, final = 58.6542 29.5713
  Force max component initial, final = 11.9925 5.17235
  Final line search alpha, max atom move = 1.30088e-11 6.72862e-11
  Iterations, force evaluations = 32 121

timestep        1
fix             pysimm_md all nvt temp 300 300 100
run             5000
PPPM initialization ...
  G vector (1/distance) = 0.13098
  grid = 25 25 25
  stencil order = 5
  estimated absolute RMS force accuracy = 0.0383029
  estimated relative force accuracy = 0.000115348
  3d grid and FFT values/proc = 3888 1250
Loop time of 10.3073 on 16 procs for 5000 steps with 1202 atoms

unfix pysimm_md
write_dump all custom pysimm.dump.tmp id q x y z vx vy vz
quit
