################################################################################
##################################    Init    ##################################
################################################################################
units           real
atom_style      full
pair_style      lj/cut/coul/long 12.0  12.0
kspace_style    pppm 1e-4
bond_style      harmonic
angle_style     harmonic
dihedral_style  fourier
improper_style  cvff
special_bonds   amber
pair_modify     mix arithmetic
read_data       temp.lmps
  orthogonal box = (-98.6673 -98.6673 -98.6673) to (98.6673 98.6673 98.6673)
  reading atoms ...
  664 atoms
  reading velocities ...
  664 velocities
  scanning bonds ...
  scanning angles ...
  scanning dihedrals ...
  scanning impropers ...
  reading bonds ...
  782 bonds
  reading angles ...
  1620 angles
  reading dihedrals ...
  2998 dihedrals
  reading impropers ...
  80 impropers
################################################################################

min_style cg
minimize 1e-06 1e-06 1000000 10000000
PPPM initialization ...
  G vector (1/distance) = 0.144062
  grid = 32 32 32
  stencil order = 5
  estimated absolute RMS force accuracy = 0.000996289
  estimated relative force accuracy = 3.00029e-06
  3d grid and FFT values/proc = 50653 32768
  update every 1 steps, delay 0 steps, check yes
Step Temp E_pair E_mol TotEng Press
0    294.23495    144.13816    4702.9977    5428.6256   -1.0125665
Loop time of 9.21709 on 1 procs for 460 steps with 664 atoms

Minimization stats:
  Stopping criterion = linesearch alpha is zero
  Energy initial, next-to-last, final =
  Force two-norm initial, final = 858.725 5.19392
  Force max component initial, final = 299.684 0.685498
  Final line search alpha, max atom move = 2.93857e-10 2.01438e-10
  Iterations, force evaluations = 460 969

write_dump all custom pysimm.dump.tmp id q x y z vx vy vz
quit

################################################################################
##################################    Init    ##################################
################################################################################
units           real
atom_style      full
pair_style      lj/cut/coul/long 12.0  12.0
kspace_style    pppm 1e-4
bond_style      harmonic
angle_style     harmonic
dihedral_style  fourier
improper_style  cvff
special_bonds   amber
pair_modify     mix arithmetic
read_data       temp.lmps
  orthogonal box = (-124.313 -124.313 -124.313) to (124.313 124.313 124.313)
  reading atoms ...
  732 atoms
  reading velocities ...
  732 velocities
  scanning bonds ...
  scanning angles ...
  scanning dihedrals ...
  scanning impropers ...
  reading bonds ...
  861 bonds
  reading angles ...
  1782 angles
  reading dihedrals ...
  3293 dihedrals
  reading impropers ...
  88 impropers
################################################################################

min_style cg
minimize 1e-06 1e-06 1000000 10000000
PPPM initialization ...
  G vector (1/distance) = 0.143436
  grid = 40 40 40
  stencil order = 5
  estimated absolute RMS force accuracy = 0.000757774
  estimated relative force accuracy = 2.28201e-06
  3d grid and FFT values/proc = 91125 64000
  update every 1 steps, delay 0 steps, check yes
Step Temp E_pair E_mol TotEng Press
0    1074.0572    240.58597    5434.5324     8015.459      3.60282
Loop time of 26.2261 on 1 procs for 800 steps with 732 atoms

Minimization stats:
  Stopping criterion = energy tolerance
  Energy initial, next-to-last, final =
  Force two-norm initial, final = 1399.32 6.12431
  Force max component initial, final = 755.991 0.875393
  Final line search alpha, max atom move = 0.0107553 0.0094151
  Iterations, force evaluations = 800 1597

write_dump all custom pysimm.dump.tmp id q x y z vx vy vz
quit

################################################################################
##################################    Init    ##################################
################################################################################
units           real
atom_style      full
pair_style      lj/cut/coul/long 12.0  12.0
kspace_style    pppm 1e-4
bond_style      harmonic
angle_style     harmonic
dihedral_style  fourier
improper_style  cvff
special_bonds   amber
pair_modify     mix arithmetic
read_data       temp.lmps
  orthogonal box = (-128.326 -128.326 -128.326) to (128.326 128.326 128.326)
  reading atoms ...
  800 atoms
  reading velocities ...
  800 velocities
  scanning bonds ...
  scanning angles ...
  scanning dihedrals ...
  scanning impropers ...
  reading bonds ...
  940 bonds
  reading angles ...
  1944 angles
  reading dihedrals ...
  3588 dihedrals
  reading impropers ...
  96 impropers
################################################################################

min_style cg
minimize 1e-06 1e-06 1000000 10000000
PPPM initialization ...
  G vector (1/distance) = 0.14095
  grid = 40 40 40
  stencil order = 5
  estimated absolute RMS force accuracy = 0.000837402
  estimated relative force accuracy = 2.52181e-06
  3d grid and FFT values/proc = 91125 64000
  update every 1 steps, delay 0 steps, check yes
Step Temp E_pair E_mol TotEng Press
0    1089.5864    190.79763     6107.546    8893.3758    1.0261154
Loop time of 61.3038 on 1 procs for 1826 steps with 800 atoms

Minimization stats:
  Stopping criterion = energy tolerance
  Energy initial, next-to-last, final =
  Force two-norm initial, final = 1207.12 6.41936
  Force max component initial, final = 307.208 1.01952
  Final line search alpha, max atom move = 0.0105265 0.010732
  Iterations, force evaluations = 1826 3647

write_dump all custom pysimm.dump.tmp id q x y z vx vy vz
quit

################################################################################
##################################    Init    ##################################
################################################################################
units           real
atom_style      full
pair_style      lj/cut/coul/long 12.0  12.0
kspace_style    pppm 1e-4
bond_style      harmonic
angle_style     harmonic
dihedral_style  fourier
improper_style  cvff
special_bonds   amber
pair_modify     mix arithmetic
read_data       temp.lmps
  orthogonal box = (-132.102 -132.102 -132.102) to (132.102 132.102 132.102)
  reading atoms ...
  868 atoms
  reading velocities ...
  868 velocities
  scanning bonds ...
  scanning angles ...
  scanning dihedrals ...
  scanning impropers ...
  reading bonds ...
  1019 bonds
  reading angles ...
  2106 angles
  reading dihedrals ...
  3883 dihedrals
  reading impropers ...
  104 impropers
################################################################################

min_style cg
minimize 1e-06 1e-06 1000000 10000000
PPPM initialization ...
  G vector (1/distance) = 0.147988
  grid = 45 45 45
  stencil order = 5
  estimated absolute RMS force accuracy = 0.000619222
  estimated relative force accuracy = 1.86477e-06
  3d grid and FFT values/proc = 125000 91125
  update every 1 steps, delay 0 steps, check yes
Step Temp E_pair E_mol TotEng Press
0    1044.3553    1506.3589    6518.6966    10724.048    20.221631
Loop time of 35.8232 on 1 procs for 789 steps with 868 atoms

Minimization stats:
  Stopping criterion = energy tolerance
  Energy initial, next-to-last, final =
  Force two-norm initial, final = 16710.4 5.75034
  Force max component initial, final = 11088.8 0.648052
  Final line search alpha, max atom move = 0.0156115 0.0101171
  Iterations, force evaluations = 789 1574

write_dump all custom pysimm.dump.tmp id q x y z vx vy vz
quit

################################################################################
##################################    Init    ##################################
################################################################################
units           real
atom_style      full
pair_style      lj/cut/coul/long 12.0  12.0
kspace_style    pppm 1e-4
bond_style      harmonic
angle_style     harmonic
dihedral_style  fourier
improper_style  cvff
special_bonds   amber
pair_modify     mix arithmetic
read_data       temp.lmps
  orthogonal box = (-135.674 -135.674 -135.674) to (135.674 135.674 135.674)
  reading atoms ...
  936 atoms
  reading velocities ...
  936 velocities
  scanning bonds ...
  scanning angles ...
  scanning dihedrals ...
  scanning impropers ...
  reading bonds ...
  1098 bonds
  reading angles ...
  2268 angles
  reading dihedrals ...
  4178 dihedrals
  reading impropers ...
  112 impropers
################################################################################

min_style cg
minimize 1e-06 1e-06 1000000 10000000
PPPM initialization ...
  G vector (1/distance) = 0.145849
  grid = 45 45 45
  stencil order = 5
  estimated absolute RMS force accuracy = 0.000675684
  estimated relative force accuracy = 2.0348e-06
  3d grid and FFT values/proc = 125000 91125
  update every 1 steps, delay 0 steps, check yes
Step Temp E_pair E_mol TotEng Press
0    1034.7487    483.96943    7211.5782    10579.452    3.5741936
Loop time of 42.0904 on 1 procs for 884 steps with 936 atoms

Minimization stats:
  Stopping criterion = energy tolerance
  Energy initial, next-to-last, final =
  Force two-norm initial, final = 2769.37 7.87781
  Force max component initial, final = 1567.51 1.19433
  Final line search alpha, max atom move = 2.33817e-06 2.79255e-06
  Iterations, force evaluations = 884 1788

write_dump all custom pysimm.dump.tmp id q x y z vx vy vz
quit

################################################################################
##################################    Init    ##################################
################################################################################
units           real
atom_style      full
pair_style      lj/cut/coul/long 12.0  12.0
kspace_style    pppm 1e-4
bond_style      harmonic
angle_style     harmonic
dihedral_style  fourier
improper_style  cvff
special_bonds   amber
pair_modify     mix arithmetic
read_data       temp.lmps
  orthogonal box = (-139.068 -139.068 -139.068) to (139.068 139.068 139.068)
  reading atoms ...
  1004 atoms
  reading velocities ...
  1004 velocities
  scanning bonds ...
  scanning angles ...
  scanning dihedrals ...
  scanning impropers ...
  reading bonds ...
  1177 bonds
  reading angles ...
  2430 angles
  reading dihedrals ...
  4473 dihedrals
  reading impropers ...
  120 impropers
################################################################################

min_style cg
minimize 1e-06 1e-06 1000000 10000000
PPPM initialization ...
  G vector (1/distance) = 0.143881
  grid = 45 45 45
  stencil order = 5
  estimated absolute RMS force accuracy = 0.000731848
  estimated relative force accuracy = 2.20394e-06
  3d grid and FFT values/proc = 125000 91125
  update every 1 steps, delay 0 steps, check yes
Step Temp E_pair E_mol TotEng Press
0    1213.5855     1648.788    7594.0909    12871.199    18.130069
Loop time of 77.8842 on 1 procs for 1649 steps with 1004 atoms

Minimization stats:
  Stopping criterion = energy tolerance
  Energy initial, next-to-last, final =
  Force two-norm initial, final = 12457.8 8.06828
  Force max component initial, final = 6976.37 1.48478
  Final line search alpha, max atom move = 0.00790732 0.0117407
  Iterations, force evaluations = 1649 3294

write_dump all custom pysimm.dump.tmp id q x y z vx vy vz
quit

################################################################################
##################################    Init    ##################################
################################################################################
units           real
atom_style      full
pair_style      lj/cut/coul/long 12.0  12.0
kspace_style    pppm 1e-4
bond_style      harmonic
angle_style     harmonic
dihedral_style  fourier
improper_style  cvff
special_bonds   amber
pair_modify     mix arithmetic
read_data       temp.lmps
  orthogonal box = (-142.303 -142.303 -142.303) to (142.303 142.303 142.303)
  reading atoms ...
  1072 atoms
  reading velocities ...
  1072 velocities
  scanning bonds ...
  scanning angles ...
  scanning dihedrals ...
  scanning impropers ...
  reading bonds ...
  1256 bonds
  reading angles ...
  2592 angles
  reading dihedrals ...
  4768 dihedrals
  reading impropers ...
  128 impropers
################################################################################

min_style cg
minimize 1e-06 1e-06 1000000 10000000
PPPM initialization ...
  G vector (1/distance) = 0.142069
  grid = 45 45 45
  stencil order = 5
  estimated absolute RMS force accuracy = 0.000787745
  estimated relative force accuracy = 2.37227e-06
  3d grid and FFT values/proc = 125000 91125
  update every 1 steps, delay 0 steps, check yes
Step Temp E_pair E_mol TotEng Press
0    913.40841     838.1021     8124.793    11878.904    5.3647638
Loop time of 42.1012 on 1 procs for 833 steps with 1072 atoms

Minimization stats:
  Stopping criterion = linesearch alpha is zero
  Energy initial, next-to-last, final =
  Force two-norm initial, final = 7037.4 9.78116
  Force max component initial, final = 3590.6 1.2328
  Final line search alpha, max atom move = 6.79972e-11 8.3827e-11
  Iterations, force evaluations = 833 1715

write_dump all custom pysimm.dump.tmp id q x y z vx vy vz
quit

################################################################################
##################################    Init    ##################################
################################################################################
units           real
atom_style      full
pair_style      lj/cut/coul/long 12.0  12.0
kspace_style    pppm 1e-4
bond_style      harmonic
angle_style     harmonic
dihedral_style  fourier
improper_style  cvff
special_bonds   amber
pair_modify     mix arithmetic
read_data       temp.lmps
  orthogonal box = (-145.397 -145.397 -145.397) to (145.397 145.397 145.397)
  reading atoms ...
  1140 atoms
  reading velocities ...
  1140 velocities
  scanning bonds ...
  scanning angles ...
  scanning dihedrals ...
  scanning impropers ...
  reading bonds ...
  1335 bonds
  reading angles ...
  2754 angles
  reading dihedrals ...
  5063 dihedrals
  reading impropers ...
  136 impropers
################################################################################

min_style cg
minimize 1e-06 1e-06 1000000 10000000
PPPM initialization ...
  G vector (1/distance) = 0.145475
  grid = 48 48 48
  stencil order = 5
  estimated absolute RMS force accuracy = 0.000680797
  estimated relative force accuracy = 2.0502e-06
  3d grid and FFT values/proc = 148877 110592
  update every 1 steps, delay 0 steps, check yes
Step Temp E_pair E_mol TotEng Press
0    833.73617    826.62909     8531.425    12188.707     4.702803
Loop time of 48.6214 on 1 procs for 806 steps with 1140 atoms

Minimization stats:
  Stopping criterion = energy tolerance
  Energy initial, next-to-last, final =
  Force two-norm initial, final = 7112.05 11.2154
  Force max component initial, final = 4679.98 1.15954
  Final line search alpha, max atom move = 0.00770155 0.00893026
  Iterations, force evaluations = 806 1608

write_dump all custom pysimm.dump.tmp id q x y z vx vy vz
quit

################################################################################
##################################    Init    ##################################
################################################################################
units           real
atom_style      full
pair_style      lj/cut/coul/long 12.0  12.0
kspace_style    pppm 1e-4
bond_style      harmonic
angle_style     harmonic
dihedral_style  fourier
improper_style  cvff
special_bonds   amber
pair_modify     mix arithmetic
read_data       temp.lmps
  orthogonal box = (-148.365 -148.365 -148.365) to (148.365 148.365 148.365)
  reading atoms ...
  1208 atoms
  reading velocities ...
  1208 velocities
  scanning bonds ...
  scanning angles ...
  scanning dihedrals ...
  scanning impropers ...
  reading bonds ...
  1414 bonds
  reading angles ...
  2916 angles
  reading dihedrals ...
  5358 dihedrals
  reading impropers ...
  144 impropers
################################################################################

min_style cg
minimize 1e-06 1e-06 1000000 10000000
PPPM initialization ...
  G vector (1/distance) = 0.143867
  grid = 48 48 48
  stencil order = 5
  estimated absolute RMS force accuracy = 0.000727003
  estimated relative force accuracy = 2.18935e-06
  3d grid and FFT values/proc = 148877 110592
  update every 1 steps, delay 0 steps, check yes
Step Temp E_pair E_mol TotEng Press
0    1020.9617    308.05778     9293.371    13274.683   -1.0153133
Loop time of 77.6375 on 1 procs for 1241 steps with 1208 atoms

Minimization stats:
  Stopping criterion = linesearch alpha is zero
  Energy initial, next-to-last, final =
  Force two-norm initial, final = 1926.53 9.22277
  Force max component initial, final = 349.925 2.03139
  Final line search alpha, max atom move = 1.25202e-10 2.54333e-10
  Iterations, force evaluations = 1241 2530

write_dump all custom pysimm.dump.tmp id q x y z vx vy vz
quit

################################################################################
##################################    Init    ##################################
################################################################################
units           real
atom_style      full
pair_style      lj/cut/coul/long 12.0  12.0
kspace_style    pppm 1e-4
bond_style      harmonic
angle_style     harmonic
dihedral_style  fourier
improper_style  cvff
special_bonds   amber
pair_modify     mix arithmetic
read_data       temp.lmps
  orthogonal box = (-151.219 -151.219 -151.219) to (151.219 151.219 151.219)
  reading atoms ...
  1276 atoms
  reading velocities ...
  1276 velocities
  scanning bonds ...
  scanning angles ...
  scanning dihedrals ...
  scanning impropers ...
  reading bonds ...
  1493 bonds
  reading angles ...
  3078 angles
  reading dihedrals ...
  5653 dihedrals
  reading impropers ...
  152 impropers
################################################################################

min_style cg
minimize 1e-06 1e-06 1000000 10000000
PPPM initialization ...
  G vector (1/distance) = 0.142364
  grid = 48 48 48
  stencil order = 5
  estimated absolute RMS force accuracy = 0.000773033
  estimated relative force accuracy = 2.32797e-06
  3d grid and FFT values/proc = 148877 110592
  update every 1 steps, delay 0 steps, check yes
Step Temp E_pair E_mol TotEng Press
0    800.73511    3964.4015    9599.2159    16606.837    33.278846
Loop time of 65.1434 on 1 procs for 1040 steps with 1276 atoms

Minimization stats:
  Stopping criterion = energy tolerance
  Energy initial, next-to-last, final =
  Force two-norm initial, final = 39702.7 9.78016
  Force max component initial, final = 22029.7 1.10895
  Final line search alpha, max atom move = 0.00948585 0.0105194
  Iterations, force evaluations = 1040 2074

write_dump all custom pysimm.dump.tmp id q x y z vx vy vz
quit

################################################################################
##################################    Init    ##################################
################################################################################
units           real
atom_style      full
pair_style      lj/cut/coul/long 12.0  12.0
kspace_style    pppm 1e-4
bond_style      harmonic
angle_style     harmonic
dihedral_style  fourier
improper_style  cvff
special_bonds   amber
pair_modify     mix arithmetic
read_data       temp.lmps
  orthogonal box = (-153.969 -153.969 -153.969) to (153.969 153.969 153.969)
  reading atoms ...
  1344 atoms
  reading velocities ...
  1344 velocities
  scanning bonds ...
  scanning angles ...
  scanning dihedrals ...
  scanning impropers ...
  reading bonds ...
  1572 bonds
  reading angles ...
  3240 angles
  reading dihedrals ...
  5948 dihedrals
  reading impropers ...
  160 impropers
################################################################################

min_style cg
minimize 1e-06 1e-06 1000000 10000000
PPPM initialization ...
  G vector (1/distance) = 0.140961
  grid = 48 48 48
  stencil order = 5
  estimated absolute RMS force accuracy = 0.000818932
  estimated relative force accuracy = 2.46619e-06
  3d grid and FFT values/proc = 148877 110592
  update every 1 steps, delay 0 steps, check yes
Step Temp E_pair E_mol TotEng Press
0    972.77163    716.65756    10191.738    14802.622   0.99344501
Loop time of 52.543 on 1 procs for 816 steps with 1344 atoms

Minimization stats:
  Stopping criterion = linesearch alpha is zero
  Energy initial, next-to-last, final =
  Force two-norm initial, final = 3705.92 9.32041
  Force max component initial, final = 1610.15 1.22154
  Final line search alpha, max atom move = 7.90851e-11 9.66053e-11
  Iterations, force evaluations = 816 1679

write_dump all custom pysimm.dump.tmp id q x y z vx vy vz
quit

################################################################################
##################################    Init    ##################################
################################################################################
units           real
atom_style      full
pair_style      lj/cut/coul/long 12.0  12.0
kspace_style    pppm 1e-4
bond_style      harmonic
angle_style     harmonic
dihedral_style  fourier
improper_style  cvff
special_bonds   amber
pair_modify     mix arithmetic
read_data       temp.lmps
  orthogonal box = (-156.625 -156.625 -156.625) to (156.625 156.625 156.625)
  reading atoms ...
  1412 atoms
  reading velocities ...
  1412 velocities
  scanning bonds ...
  scanning angles ...
  scanning dihedrals ...
  scanning impropers ...
  reading bonds ...
  1651 bonds
  reading angles ...
  3402 angles
  reading dihedrals ...
  6243 dihedrals
  reading impropers ...
  168 impropers
################################################################################

min_style cg
minimize 1e-06 1e-06 1000000 10000000
PPPM initialization ...
  G vector (1/distance) = 0.142812
  grid = 50 50 50
  stencil order = 5
  estimated absolute RMS force accuracy = 0.000756126
  estimated relative force accuracy = 2.27705e-06
  3d grid and FFT values/proc = 166375 125000
  update every 1 steps, delay 0 steps, check yes
Step Temp E_pair E_mol TotEng Press
0    735.42973    20615.485    10672.054      34380.7    177.15798
Loop time of 81.7355 on 1 procs for 1161 steps with 1412 atoms

Minimization stats:
  Stopping criterion = energy tolerance
  Energy initial, next-to-last, final =
  Force two-norm initial, final = 371418 9.27071
  Force max component initial, final = 221178 1.53502
  Final line search alpha, max atom move = 0.00691291 0.0106114
  Iterations, force evaluations = 1161 2318

write_dump all custom pysimm.dump.tmp id q x y z vx vy vz
quit

################################################################################
##################################    Init    ##################################
################################################################################
units           real
atom_style      full
pair_style      lj/cut/coul/long 12.0  12.0
kspace_style    pppm 1e-4
bond_style      harmonic
angle_style     harmonic
dihedral_style  fourier
improper_style  cvff
special_bonds   amber
pair_modify     mix arithmetic
read_data       temp.lmps
  orthogonal box = (-159.193 -159.193 -159.193) to (159.193 159.193 159.193)
  reading atoms ...
  1480 atoms
  reading velocities ...
  1480 velocities
  scanning bonds ...
  scanning angles ...
  scanning dihedrals ...
  scanning impropers ...
  reading bonds ...
  1730 bonds
  reading angles ...
  3564 angles
  reading dihedrals ...
  6538 dihedrals
  reading impropers ...
  176 impropers
################################################################################

min_style cg
minimize 1e-06 1e-06 1000000 10000000
PPPM initialization ...
  G vector (1/distance) = 0.141539
  grid = 50 50 50
  stencil order = 5
  estimated absolute RMS force accuracy = 0.000796752
  estimated relative force accuracy = 2.39939e-06
  3d grid and FFT values/proc = 166375 125000
  update every 1 steps, delay 0 steps, check yes
Step Temp E_pair E_mol TotEng Press
0    657.18983    4545.6378    11198.525    18641.461     30.54724
Loop time of 62.0027 on 1 procs for 865 steps with 1480 atoms

Minimization stats:
  Stopping criterion = linesearch alpha is zero
  Energy initial, next-to-last, final =
  Force two-norm initial, final = 55327 8.55045
  Force max component initial, final = 32137.4 1.10642
  Final line search alpha, max atom move = 9.55826e-11 1.05754e-10
  Iterations, force evaluations = 865 1778

write_dump all custom pysimm.dump.tmp id q x y z vx vy vz
quit

################################################################################
##################################    Init    ##################################
################################################################################
units           real
atom_style      full
pair_style      lj/cut/coul/long 12.0  12.0
kspace_style    pppm 1e-4
bond_style      harmonic
angle_style     harmonic
dihedral_style  fourier
improper_style  cvff
special_bonds   amber
pair_modify     mix arithmetic
read_data       temp.lmps
  orthogonal box = (-161.68 -161.68 -161.68) to (161.68 161.68 161.68)
  reading atoms ...
  1548 atoms
  reading velocities ...
  1548 velocities
  scanning bonds ...
  scanning angles ...
  scanning dihedrals ...
  scanning impropers ...
  reading bonds ...
  1809 bonds
  reading angles ...
  3726 angles
  reading dihedrals ...
  6833 dihedrals
  reading impropers ...
  184 impropers
################################################################################

min_style cg
minimize 1e-06 1e-06 1000000 10000000
PPPM initialization ...
  G vector (1/distance) = 0.146405
  grid = 54 54 54
  stencil order = 5
  estimated absolute RMS force accuracy = 0.000648068
  estimated relative force accuracy = 1.95164e-06
  3d grid and FFT values/proc = 205379 157464
  update every 1 steps, delay 0 steps, check yes
Step Temp E_pair E_mol TotEng Press
0    539.24094     16739.09    11757.906    30983.604      127.165
Loop time of 111.884 on 1 procs for 1117 steps with 1548 atoms

Minimization stats:
  Stopping criterion = energy tolerance
  Energy initial, next-to-last, final =
  Force two-norm initial, final = 284941 9.16952
  Force max component initial, final = 163759 1.60154
  Final line search alpha, max atom move = 0.00493391 0.00790186
  Iterations, force evaluations = 1117 2228

write_dump all custom pysimm.dump.tmp id q x y z vx vy vz
quit

################################################################################
##################################    Init    ##################################
################################################################################
units           real
atom_style      full
pair_style      lj/cut/coul/long 12.0  12.0
kspace_style    pppm 1e-4
bond_style      harmonic
angle_style     harmonic
dihedral_style  fourier
improper_style  cvff
special_bonds   amber
pair_modify     mix arithmetic
read_data       temp.lmps
  orthogonal box = (-164.094 -164.094 -164.094) to (164.094 164.094 164.094)
  reading atoms ...
  1616 atoms
  reading velocities ...
  1616 velocities
  scanning bonds ...
  scanning angles ...
  scanning dihedrals ...
  scanning impropers ...
  reading bonds ...
  1888 bonds
  reading angles ...
  3888 angles
  reading dihedrals ...
  7128 dihedrals
  reading impropers ...
  192 impropers
################################################################################

min_style cg
minimize 1e-06 1e-06 1000000 10000000
PPPM initialization ...
  G vector (1/distance) = 0.145221
  grid = 54 54 54
  stencil order = 5
  estimated absolute RMS force accuracy = 0.000680565
  estimated relative force accuracy = 2.0495e-06
  3d grid and FFT values/proc = 205379 157464
  update every 1 steps, delay 0 steps, check yes
Step Temp E_pair E_mol TotEng Press
0    496.56281    649.95814    12186.531    15226.947   -3.8093136
Loop time of 164.536 on 1 procs for 1621 steps with 1616 atoms

Minimization stats:
  Stopping criterion = energy tolerance
  Energy initial, next-to-last, final =
  Force two-norm initial, final = 3082.72 10.5632
  Force max component initial, final = 1216.57 1.61006
  Final line search alpha, max atom move = 0.00583576 0.00939592
  Iterations, force evaluations = 1621 3238

write_dump all custom pysimm.dump.tmp id q x y z vx vy vz
quit

################################################################################
##################################    Init    ##################################
################################################################################
units           real
atom_style      full
pair_style      lj/cut/coul/long 12.0  12.0
kspace_style    pppm 1e-4
bond_style      harmonic
angle_style     harmonic
dihedral_style  fourier
improper_style  cvff
special_bonds   amber
pair_modify     mix arithmetic
read_data       temp.lmps
  orthogonal box = (-166.438 -166.438 -166.438) to (166.438 166.438 166.438)
  reading atoms ...
  1684 atoms
  reading velocities ...
  1684 velocities
  scanning bonds ...
  scanning angles ...
  scanning dihedrals ...
  scanning impropers ...
  reading bonds ...
  1967 bonds
  reading angles ...
  4050 angles
  reading dihedrals ...
  7423 dihedrals
  reading impropers ...
  200 impropers
################################################################################

min_style cg
minimize 1e-06 1e-06 1000000 10000000
PPPM initialization ...
  G vector (1/distance) = 0.144092
  grid = 54 54 54
  stencil order = 5
  estimated absolute RMS force accuracy = 0.000712971
  estimated relative force accuracy = 2.14709e-06
  3d grid and FFT values/proc = 205379 157464
  update every 1 steps, delay 0 steps, check yes
Step Temp E_pair E_mol TotEng Press
0    468.50019    983.75885    12964.475     16298.56   -1.9708546
Loop time of 97.2867 on 1 procs for 952 steps with 1684 atoms

Minimization stats:
  Stopping criterion = energy tolerance
  Energy initial, next-to-last, final =
  Force two-norm initial, final = 3708 9.6876
  Force max component initial, final = 1026.99 1.47823
  Final line search alpha, max atom move = 0.00761217 0.0112525
  Iterations, force evaluations = 952 1895

write_dump all custom pysimm.dump.tmp id q x y z vx vy vz
quit

################################################################################
##################################    Init    ##################################
################################################################################
units           real
atom_style      full
pair_style      lj/cut/coul/long 12.0  12.0
kspace_style    pppm 1e-4
bond_style      harmonic
angle_style     harmonic
dihedral_style  fourier
improper_style  cvff
special_bonds   amber
pair_modify     mix arithmetic
read_data       temp.lmps
  orthogonal box = (-168.719 -168.719 -168.719) to (168.719 168.719 168.719)
  reading atoms ...
  1752 atoms
  reading velocities ...
  1752 velocities
  scanning bonds ...
  scanning angles ...
  scanning dihedrals ...
  scanning impropers ...
  reading bonds ...
  2046 bonds
  reading angles ...
  4212 angles
  reading dihedrals ...
  7718 dihedrals
  reading impropers ...
  208 impropers
################################################################################

min_style cg
minimize 1e-06 1e-06 1000000 10000000
PPPM initialization ...
  G vector (1/distance) = 0.143015
  grid = 54 54 54
  stencil order = 5
  estimated absolute RMS force accuracy = 0.000745292
  estimated relative force accuracy = 2.24442e-06
  3d grid and FFT values/proc = 205379 157464
  update every 1 steps, delay 0 steps, check yes
Step Temp E_pair E_mol TotEng Press
0     504.6651    1272.2743    13172.916    17079.239  -0.28921759
Loop time of 104.867 on 1 procs for 1017 steps with 1752 atoms

Minimization stats:
  Stopping criterion = energy tolerance
  Energy initial, next-to-last, final =
  Force two-norm initial, final = 4742.9 8.2958
  Force max component initial, final = 1815.78 0.987971
  Final line search alpha, max atom move = 0.012414 0.0122647
  Iterations, force evaluations = 1017 2030

write_dump all custom pysimm.dump.tmp id q x y z vx vy vz
quit

################################################################################
##################################    Init    ##################################
################################################################################
units           real
atom_style      full
pair_style      lj/cut/coul/long 12.0  12.0
kspace_style    pppm 1e-4
bond_style      harmonic
angle_style     harmonic
dihedral_style  fourier
improper_style  cvff
special_bonds   amber
pair_modify     mix arithmetic
read_data       temp.lmps
  orthogonal box = (-170.939 -170.939 -170.939) to (170.939 170.939 170.939)
  reading atoms ...
  1820 atoms
  reading velocities ...
  1820 velocities
  scanning bonds ...
  scanning angles ...
  scanning dihedrals ...
  scanning impropers ...
  reading bonds ...
  2125 bonds
  reading angles ...
  4374 angles
  reading dihedrals ...
  8013 dihedrals
  reading impropers ...
  216 impropers
################################################################################

min_style cg
minimize 1e-06 1e-06 1000000 10000000
PPPM initialization ...
  G vector (1/distance) = 0.141989
  grid = 54 54 54
  stencil order = 5
  estimated absolute RMS force accuracy = 0.00077754
  estimated relative force accuracy = 2.34154e-06
  3d grid and FFT values/proc = 205379 157464
  update every 1 steps, delay 0 steps, check yes
Step Temp E_pair E_mol TotEng Press
0     499.5439    1469.2797    13711.674    17889.528   0.39958797
Loop time of 96.6161 on 1 procs for 913 steps with 1820 atoms

Minimization stats:
  Stopping criterion = linesearch alpha is zero
  Energy initial, next-to-last, final =
  Force two-norm initial, final = 10610.2 11.4689
  Force max component initial, final = 4863.23 1.77675
  Final line search alpha, max atom move = 4.94468e-11 8.78544e-11
  Iterations, force evaluations = 913 1875

write_dump all custom pysimm.dump.tmp id q x y z vx vy vz
quit

################################################################################
##################################    Init    ##################################
################################################################################
units           real
atom_style      full
pair_style      lj/cut/coul/long 12.0  12.0
kspace_style    pppm 1e-4
bond_style      harmonic
angle_style     harmonic
dihedral_style  fourier
improper_style  cvff
special_bonds   amber
pair_modify     mix arithmetic
read_data       temp.lmps
  orthogonal box = (-173.103 -173.103 -173.103) to (173.103 173.103 173.103)
  reading atoms ...
  1888 atoms
  reading velocities ...
  1888 velocities
  scanning bonds ...
  scanning angles ...
  scanning dihedrals ...
  scanning impropers ...
  reading bonds ...
  2204 bonds
  reading angles ...
  4536 angles
  reading dihedrals ...
  8308 dihedrals
  reading impropers ...
  224 impropers
################################################################################

min_style cg
minimize 1e-06 1e-06 1000000 10000000
PPPM initialization ...
  G vector (1/distance) = 0.141011
  grid = 54 54 54
  stencil order = 5
  estimated absolute RMS force accuracy = 0.000809733
  estimated relative force accuracy = 2.43849e-06
  3d grid and FFT values/proc = 205379 157464
  update every 1 steps, delay 0 steps, check yes
Step Temp E_pair E_mol TotEng Press
0    452.54057    5419.7866    14102.382    22067.613    26.321374
Loop time of 67.0956 on 1 procs for 654 steps with 1888 atoms

Minimization stats:
  Stopping criterion = energy tolerance
  Energy initial, next-to-last, final =
  Force two-norm initial, final = 41737.3 11.8908
  Force max component initial, final = 22480.5 1.52309
  Final line search alpha, max atom move = 0.0084588 0.0128835
  Iterations, force evaluations = 654 1303

write_dump all custom pysimm.dump.tmp id q x y z vx vy vz
quit

################################################################################
##################################    Init    ##################################
################################################################################
units           real
atom_style      full
pair_style      lj/cut/coul/long 12.0  12.0
kspace_style    pppm 1e-4
bond_style      harmonic
angle_style     harmonic
dihedral_style  fourier
improper_style  cvff
special_bonds   amber
pair_modify     mix arithmetic
read_data       temp.lmps
  orthogonal box = (-175.214 -175.214 -175.214) to (175.214 175.214 175.214)
  reading atoms ...
  1956 atoms
  reading velocities ...
  1956 velocities
  scanning bonds ...
  scanning angles ...
  scanning dihedrals ...
  scanning impropers ...
  reading bonds ...
  2283 bonds
  reading angles ...
  4698 angles
  reading dihedrals ...
  8603 dihedrals
  reading impropers ...
  232 impropers
################################################################################

min_style cg
minimize 1e-06 1e-06 1000000 10000000
PPPM initialization ...
  G vector (1/distance) = 0.14841
  grid = 60 60 60
  stencil order = 5
  estimated absolute RMS force accuracy = 0.000591632
  estimated relative force accuracy = 1.78168e-06
  3d grid and FFT values/proc = 274625 216000
  update every 1 steps, delay 0 steps, check yes
Step Temp E_pair E_mol TotEng Press
0    435.03961    4566.3451    14673.283    21774.815    19.114424
Loop time of 157.902 on 1 procs for 1159 steps with 1956 atoms

Minimization stats:
  Stopping criterion = energy tolerance
  Energy initial, next-to-last, final =
  Force two-norm initial, final = 40482 7.63212
  Force max component initial, final = 15931.2 1.63356
  Final line search alpha, max atom move = 0.0134225 0.0219265
  Iterations, force evaluations = 1159 2314

write_dump all custom pysimm.dump.tmp id q x y z vx vy vz
quit

################################################################################
##################################    Init    ##################################
################################################################################
units           real
atom_style      full
pair_style      lj/cut/coul/long 12.0  12.0
kspace_style    pppm 1e-4
bond_style      harmonic
angle_style     harmonic
dihedral_style  fourier
improper_style  cvff
special_bonds   amber
pair_modify     mix arithmetic
read_data       temp.lmps
  orthogonal box = (-177.276 -177.276 -177.276) to (177.276 177.276 177.276)
  reading atoms ...
  2024 atoms
  reading velocities ...
  2024 velocities
  scanning bonds ...
  scanning angles ...
  scanning dihedrals ...
  scanning impropers ...
  reading bonds ...
  2362 bonds
  reading angles ...
  4860 angles
  reading dihedrals ...
  8898 dihedrals
  reading impropers ...
  240 impropers
################################################################################

min_style cg
minimize 1e-06 1e-06 1000000 10000000
PPPM initialization ...
  G vector (1/distance) = 0.14747
  grid = 60 60 60
  stencil order = 5
  estimated absolute RMS force accuracy = 0.000615408
  estimated relative force accuracy = 1.85328e-06
  3d grid and FFT values/proc = 274625 216000
  update every 1 steps, delay 0 steps, check yes
Step Temp E_pair E_mol TotEng Press
0    459.17187    6873.3163    15167.851    24810.055    32.799441
Loop time of 207.705 on 1 procs for 1509 steps with 2024 atoms

Minimization stats:
  Stopping criterion = energy tolerance
  Energy initial, next-to-last, final =
  Force two-norm initial, final = 91689.2 9.96023
  Force max component initial, final = 50583.3 1.19349
  Final line search alpha, max atom move = 0.00734128 0.00876172
  Iterations, force evaluations = 1509 3014

write_dump all custom pysimm.dump.tmp id q x y z vx vy vz
quit

################################################################################
##################################    Init    ##################################
################################################################################
units           real
atom_style      full
pair_style      lj/cut/coul/long 12.0  12.0
kspace_style    pppm 1e-4
bond_style      harmonic
angle_style     harmonic
dihedral_style  fourier
improper_style  cvff
special_bonds   amber
pair_modify     mix arithmetic
read_data       temp.lmps
  orthogonal box = (-179.29 -179.29 -179.29) to (179.29 179.29 179.29)
  reading atoms ...
  2092 atoms
  reading velocities ...
  2092 velocities
  scanning bonds ...
  scanning angles ...
  scanning dihedrals ...
  scanning impropers ...
  reading bonds ...
  2441 bonds
  reading angles ...
  5022 angles
  reading dihedrals ...
  9193 dihedrals
  reading impropers ...
  248 impropers
################################################################################

min_style cg
minimize 1e-06 1e-06 1000000 10000000
PPPM initialization ...
  G vector (1/distance) = 0.146564
  grid = 60 60 60
  stencil order = 5
  estimated absolute RMS force accuracy = 0.00063914
  estimated relative force accuracy = 1.92475e-06
  3d grid and FFT values/proc = 274625 216000
  update every 1 steps, delay 0 steps, check yes
Step Temp E_pair E_mol TotEng Press
0    396.47854    6403.9232    15743.369    24618.493    28.397517
Loop time of 164.258 on 1 procs for 1176 steps with 2092 atoms

Minimization stats:
  Stopping criterion = energy tolerance
  Energy initial, next-to-last, final =
  Force two-norm initial, final = 58513.4 9.34428
  Force max component initial, final = 33607 1.1091
  Final line search alpha, max atom move = 0.0102407 0.011358
  Iterations, force evaluations = 1176 2346

write_dump all custom pysimm.dump.tmp id q x y z vx vy vz
quit

################################################################################
##################################    Init    ##################################
################################################################################
units           real
atom_style      full
pair_style      lj/cut/coul/long 12.0  12.0
kspace_style    pppm 1e-4
bond_style      harmonic
angle_style     harmonic
dihedral_style  fourier
improper_style  cvff
special_bonds   amber
pair_modify     mix arithmetic
read_data       temp.lmps
  orthogonal box = (-181.261 -181.261 -181.261) to (181.261 181.261 181.261)
  reading atoms ...
  2160 atoms
  reading velocities ...
  2160 velocities
  scanning bonds ...
  scanning angles ...
  scanning dihedrals ...
  scanning impropers ...
  reading bonds ...
  2520 bonds
  reading angles ...
  5184 angles
  reading dihedrals ...
  9488 dihedrals
  reading impropers ...
  256 impropers
################################################################################

min_style cg
minimize 1e-06 1e-06 1000000 10000000
PPPM initialization ...
  G vector (1/distance) = 0.145689
  grid = 60 60 60
  stencil order = 5
  estimated absolute RMS force accuracy = 0.000662825
  estimated relative force accuracy = 1.99608e-06
  3d grid and FFT values/proc = 274625 216000
  update every 1 steps, delay 0 steps, check yes
Step Temp E_pair E_mol TotEng Press
0    474.91008    1547.4206    16297.814    20901.552   -1.2773035
Loop time of 224.396 on 1 procs for 1564 steps with 2160 atoms

Minimization stats:
  Stopping criterion = energy tolerance
  Energy initial, next-to-last, final =
  Force two-norm initial, final = 5940.88 9.69913
  Force max component initial, final = 1797.08 2.32284
  Final line search alpha, max atom move = 0.00661036 0.0153548
  Iterations, force evaluations = 1564 3124

write_dump all custom pysimm.dump.tmp id q x y z vx vy vz
quit

################################################################################
##################################    Init    ##################################
################################################################################
units           real
atom_style      full
pair_style      lj/cut/coul/long 12.0  12.0
kspace_style    pppm 1e-4
bond_style      harmonic
angle_style     harmonic
dihedral_style  fourier
improper_style  cvff
special_bonds   amber
pair_modify     mix arithmetic
read_data       temp.lmps
  orthogonal box = (-183.189 -183.189 -183.189) to (183.189 183.189 183.189)
  reading atoms ...
  2228 atoms
  reading velocities ...
  2228 velocities
  scanning bonds ...
  scanning angles ...
  scanning dihedrals ...
  scanning impropers ...
  reading bonds ...
  2599 bonds
  reading angles ...
  5346 angles
  reading dihedrals ...
  9783 dihedrals
  reading impropers ...
  264 impropers
################################################################################

min_style cg
minimize 1e-06 1e-06 1000000 10000000
PPPM initialization ...
  G vector (1/distance) = 0.144844
  grid = 60 60 60
  stencil order = 5
  estimated absolute RMS force accuracy = 0.000686463
  estimated relative force accuracy = 2.06726e-06
  3d grid and FFT values/proc = 274625 216000
  update every 1 steps, delay 0 steps, check yes
Step Temp E_pair E_mol TotEng Press
0    456.47357    9868.5571    16969.464    29868.213    44.412019
Loop time of 229.077 on 1 procs for 1567 steps with 2228 atoms

Minimization stats:
  Stopping criterion = energy tolerance
  Energy initial, next-to-last, final =
  Force two-norm initial, final = 96325.9 9.50971
  Force max component initial, final = 53460.3 1.81134
  Final line search alpha, max atom move = 0.00757241 0.0137162
  Iterations, force evaluations = 1567 3128

write_dump all custom pysimm.dump.tmp id q x y z vx vy vz
quit

################################################################################
##################################    Init    ##################################
################################################################################
units           real
atom_style      full
pair_style      lj/cut/coul/long 12.0  12.0
kspace_style    pppm 1e-4
bond_style      harmonic
angle_style     harmonic
dihedral_style  fourier
improper_style  cvff
special_bonds   amber
pair_modify     mix arithmetic
read_data       temp.lmps
  orthogonal box = (-185.078 -185.078 -185.078) to (185.078 185.078 185.078)
  reading atoms ...
  2296 atoms
  reading velocities ...
  2296 velocities
  scanning bonds ...
  scanning angles ...
  scanning dihedrals ...
  scanning impropers ...
  reading bonds ...
  2678 bonds
  reading angles ...
  5508 angles
  reading dihedrals ...
  10078 dihedrals
  reading impropers ...
  272 impropers
################################################################################

min_style cg
minimize 1e-06 1e-06 1000000 10000000
PPPM initialization ...
  G vector (1/distance) = 0.144029
  grid = 60 60 60
  stencil order = 5
  estimated absolute RMS force accuracy = 0.000710055
  estimated relative force accuracy = 2.13831e-06
  3d grid and FFT values/proc = 274625 216000
  update every 1 steps, delay 0 steps, check yes
Step Temp E_pair E_mol TotEng Press
0    429.46411    7460.6411    17441.882    27840.469    30.420529
Loop time of 150.156 on 1 procs for 1038 steps with 2296 atoms

Minimization stats:
  Stopping criterion = energy tolerance
  Energy initial, next-to-last, final =
  Force two-norm initial, final = 87384.7 9.84438
  Force max component initial, final = 42788.5 1.51663
  Final line search alpha, max atom move = 0.00867442 0.0131559
  Iterations, force evaluations = 1038 2071

write_dump all custom pysimm.dump.tmp id q x y z vx vy vz
quit

################################################################################
##################################    Init    ##################################
################################################################################
units           real
atom_style      full
pair_style      lj/cut/coul/long 12.0  12.0
kspace_style    pppm 1e-4
bond_style      harmonic
angle_style     harmonic
dihedral_style  fourier
improper_style  cvff
special_bonds   amber
pair_modify     mix arithmetic
read_data       temp.lmps
  orthogonal box = (-186.929 -186.929 -186.929) to (186.929 186.929 186.929)
  reading atoms ...
  2364 atoms
  reading velocities ...
  2364 velocities
  scanning bonds ...
  scanning angles ...
  scanning dihedrals ...
  scanning impropers ...
  reading bonds ...
  2757 bonds
  reading angles ...
  5670 angles
  reading dihedrals ...
  10373 dihedrals
  reading impropers ...
  280 impropers
################################################################################

min_style cg
minimize 1e-06 1e-06 1000000 10000000
PPPM initialization ...
  G vector (1/distance) = 0.143241
  grid = 60 60 60
  stencil order = 5
  estimated absolute RMS force accuracy = 0.000733603
  estimated relative force accuracy = 2.20922e-06
  3d grid and FFT values/proc = 274625 216000
  update every 1 steps, delay 0 steps, check yes
Step Temp E_pair E_mol TotEng Press
0    407.66385    9856.0158    17670.315    30397.774    40.847231
Loop time of 154.847 on 1 procs for 1048 steps with 2364 atoms

Minimization stats:
  Stopping criterion = energy tolerance
  Energy initial, next-to-last, final =
  Force two-norm initial, final = 100772 12.7127
  Force max component initial, final = 57592.2 2.00933
  Final line search alpha, max atom move = 0.00662139 0.0133045
  Iterations, force evaluations = 1048 2091

write_dump all custom pysimm.dump.tmp id q x y z vx vy vz
quit

################################################################################
##################################    Init    ##################################
################################################################################
units           real
atom_style      full
pair_style      lj/cut/coul/long 12.0  12.0
kspace_style    pppm 1e-4
bond_style      harmonic
angle_style     harmonic
dihedral_style  fourier
improper_style  cvff
special_bonds   amber
pair_modify     mix arithmetic
read_data       temp.lmps
  orthogonal box = (-188.744 -188.744 -188.744) to (188.744 188.744 188.744)
  reading atoms ...
  2432 atoms
  reading velocities ...
  2432 velocities
  scanning bonds ...
  scanning angles ...
  scanning dihedrals ...
  scanning impropers ...
  reading bonds ...
  2836 bonds
  reading angles ...
  5832 angles
  reading dihedrals ...
  10668 dihedrals
  reading impropers ...
  288 impropers
################################################################################

min_style cg
minimize 1e-06 1e-06 1000000 10000000
PPPM initialization ...
  G vector (1/distance) = 0.142481
  grid = 60 60 60
  stencil order = 5
  estimated absolute RMS force accuracy = 0.000757112
  estimated relative force accuracy = 2.28002e-06
  3d grid and FFT values/proc = 274625 216000
  update every 1 steps, delay 0 steps, check yes
Step Temp E_pair E_mol TotEng Press
0    455.92954    7038.8784    18319.847     28662.55    25.291852
Loop time of 136.107 on 1 procs for 919 steps with 2432 atoms

Minimization stats:
  Stopping criterion = energy tolerance
  Energy initial, next-to-last, final =
  Force two-norm initial, final = 63214.6 9.40356
  Force max component initial, final = 35435.4 0.982962
  Final line search alpha, max atom move = 0.00983697 0.00966937
  Iterations, force evaluations = 919 1833

write_dump all custom pysimm.dump.tmp id q x y z vx vy vz
quit

################################################################################
##################################    Init    ##################################
################################################################################
units           real
atom_style      full
pair_style      lj/cut/coul/long 12.0  12.0
kspace_style    pppm 1e-4
bond_style      harmonic
angle_style     harmonic
dihedral_style  fourier
improper_style  cvff
special_bonds   amber
pair_modify     mix arithmetic
read_data       temp.lmps
  orthogonal box = (-190.524 -190.524 -190.524) to (190.524 190.524 190.524)
  reading atoms ...
  2500 atoms
  reading velocities ...
  2500 velocities
  scanning bonds ...
  scanning angles ...
  scanning dihedrals ...
  scanning impropers ...
  reading bonds ...
  2915 bonds
  reading angles ...
  5994 angles
  reading dihedrals ...
  10963 dihedrals
  reading impropers ...
  296 impropers
################################################################################

min_style cg
minimize 1e-06 1e-06 1000000 10000000
PPPM initialization ...
  G vector (1/distance) = 0.141746
  grid = 60 60 60
  stencil order = 5
  estimated absolute RMS force accuracy = 0.000780587
  estimated relative force accuracy = 2.35071e-06
  3d grid and FFT values/proc = 274625 216000
  update every 1 steps, delay 0 steps, check yes
Step Temp E_pair E_mol TotEng Press
0    380.98566    3552.3668    18873.054      25263.4    6.7858855
Loop time of 133.878 on 1 procs for 864 steps with 2500 atoms

Minimization stats:
  Stopping criterion = linesearch alpha is zero
  Energy initial, next-to-last, final =
  Force two-norm initial, final = 17359.1 10.6899
  Force max component initial, final = 6835.12 1.57606
  Final line search alpha, max atom move = 6.51297e-11 1.02649e-10
  Iterations, force evaluations = 864 1776

write_dump all custom pysimm.dump.tmp id q x y z vx vy vz
quit

################################################################################
##################################    Init    ##################################
################################################################################
units           real
atom_style      full
pair_style      lj/cut/coul/long 12.0  12.0
kspace_style    pppm 1e-4
bond_style      harmonic
angle_style     harmonic
dihedral_style  fourier
improper_style  cvff
special_bonds   amber
pair_modify     mix arithmetic
read_data       temp.lmps
  orthogonal box = (-192.272 -192.272 -192.272) to (192.272 192.272 192.272)
  reading atoms ...
  2568 atoms
  reading velocities ...
  2568 velocities
  scanning bonds ...
  scanning angles ...
  scanning dihedrals ...
  scanning impropers ...
  reading bonds ...
  2994 bonds
  reading angles ...
  6156 angles
  reading dihedrals ...
  11258 dihedrals
  reading impropers ...
  304 impropers
################################################################################

min_style cg
minimize 1e-06 1e-06 1000000 10000000
PPPM initialization ...
  G vector (1/distance) = 0.141037
  grid = 60 60 60
  stencil order = 5
  estimated absolute RMS force accuracy = 0.000804037
  estimated relative force accuracy = 2.42133e-06
  3d grid and FFT values/proc = 274625 216000
  update every 1 steps, delay 0 steps, check yes
Step Temp E_pair E_mol TotEng Press
0    433.71925    5395.2348    19326.962    28040.903    15.722574
Loop time of 118.76 on 1 procs for 798 steps with 2568 atoms

Minimization stats:
  Stopping criterion = energy tolerance
  Energy initial, next-to-last, final =
  Force two-norm initial, final = 31379.9 12.9377
  Force max component initial, final = 14775.2 2.42202
  Final line search alpha, max atom move = 0.0073743 0.0178607
  Iterations, force evaluations = 798 1591

write_dump all custom pysimm.dump.tmp id q x y z vx vy vz
quit

################################################################################
##################################    Init    ##################################
################################################################################
units           real
atom_style      full
pair_style      lj/cut/coul/long 12.0  12.0
kspace_style    pppm 1e-4
bond_style      harmonic
angle_style     harmonic
dihedral_style  fourier
improper_style  cvff
special_bonds   amber
pair_modify     mix arithmetic
read_data       temp.lmps
  orthogonal box = (-193.989 -193.989 -193.989) to (193.989 193.989 193.989)
  reading atoms ...
  2636 atoms
  reading velocities ...
  2636 velocities
  scanning bonds ...
  scanning angles ...
  scanning dihedrals ...
  scanning impropers ...
  reading bonds ...
  3073 bonds
  reading angles ...
  6318 angles
  reading dihedrals ...
  11553 dihedrals
  reading impropers ...
  312 impropers
################################################################################

min_style cg
minimize 1e-06 1e-06 1000000 10000000
PPPM initialization ...
  G vector (1/distance) = 0.145423
  grid = 64 64 64
  stencil order = 5
  estimated absolute RMS force accuracy = 0.000667934
  estimated relative force accuracy = 2.01146e-06
  3d grid and FFT values/proc = 328509 262144
  update every 1 steps, delay 0 steps, check yes
Step Temp E_pair E_mol TotEng Press
0    377.86629    9934.3824    19932.121    32834.429    35.581995
Loop time of 224.431 on 1 procs for 1176 steps with 2636 atoms

Minimization stats:
  Stopping criterion = energy tolerance
  Energy initial, next-to-last, final =
  Force two-norm initial, final = 60347.3 9.91286
  Force max component initial, final = 25923 1.17467
  Final line search alpha, max atom move = 0.00848814 0.00997074
  Iterations, force evaluations = 1176 2345

write_dump all custom pysimm.dump.tmp id q x y z vx vy vz
quit

################################################################################
##################################    Init    ##################################
################################################################################
units           real
atom_style      full
pair_style      lj/cut/coul/long 12.0  12.0
kspace_style    pppm 1e-4
bond_style      harmonic
angle_style     harmonic
dihedral_style  fourier
improper_style  cvff
special_bonds   amber
pair_modify     mix arithmetic
read_data       temp.lmps
  orthogonal box = (-195.676 -195.676 -195.676) to (195.676 195.676 195.676)
  reading atoms ...
  2704 atoms
  reading velocities ...
  2704 velocities
  scanning bonds ...
  scanning angles ...
  scanning dihedrals ...
  scanning impropers ...
  reading bonds ...
  3152 bonds
  reading angles ...
  6480 angles
  reading dihedrals ...
  11848 dihedrals
  reading impropers ...
  320 impropers
################################################################################

min_style cg
minimize 1e-06 1e-06 1000000 10000000
PPPM initialization ...
  G vector (1/distance) = 0.144733
  grid = 64 64 64
  stencil order = 5
  estimated absolute RMS force accuracy = 0.000687395
  estimated relative force accuracy = 2.07007e-06
  3d grid and FFT values/proc = 328509 262144
  update every 1 steps, delay 0 steps, check yes
Step Temp E_pair E_mol TotEng Press
0    326.57566    3140.6767    20265.264    26037.203    3.2606852
Loop time of 195.375 on 1 procs for 1040 steps with 2704 atoms

Minimization stats:
  Stopping criterion = linesearch alpha is zero
  Energy initial, next-to-last, final =
  Force two-norm initial, final = 12985.4 11.5197
  Force max component initial, final = 6224.27 1.13597
  Final line search alpha, max atom move = 6.01825e-11 6.83653e-11
  Iterations, force evaluations = 1040 2128

write_dump all custom pysimm.dump.tmp id q x y z vx vy vz
quit

################################################################################
##################################    Init    ##################################
################################################################################
units           real
atom_style      full
pair_style      lj/cut/coul/long 12.0  12.0
kspace_style    pppm 1e-4
bond_style      harmonic
angle_style     harmonic
dihedral_style  fourier
improper_style  cvff
special_bonds   amber
pair_modify     mix arithmetic
read_data       temp.lmps
  orthogonal box = (-197.335 -197.335 -197.335) to (197.335 197.335 197.335)
  reading atoms ...
  2772 atoms
  reading velocities ...
  2772 velocities
  scanning bonds ...
  scanning angles ...
  scanning dihedrals ...
  scanning impropers ...
  reading bonds ...
  3231 bonds
  reading angles ...
  6642 angles
  reading dihedrals ...
  12143 dihedrals
  reading impropers ...
  328 impropers
################################################################################

min_style cg
minimize 1e-06 1e-06 1000000 10000000
PPPM initialization ...
  G vector (1/distance) = 0.144062
  grid = 64 64 64
  stencil order = 5
  estimated absolute RMS force accuracy = 0.000706825
  estimated relative force accuracy = 2.12858e-06
  3d grid and FFT values/proc = 328509 262144
  update every 1 steps, delay 0 steps, check yes
Step Temp E_pair E_mol TotEng Press
0    274.55376    8880.0747    20750.684    31898.525    27.686511
Loop time of 261.085 on 1 procs for 1343 steps with 2772 atoms

Minimization stats:
  Stopping criterion = energy tolerance
  Energy initial, next-to-last, final =
  Force two-norm initial, final = 62443.8 11.425
  Force max component initial, final = 25922 2.42469
  Final line search alpha, max atom move = 0.00887281 0.0215138
  Iterations, force evaluations = 1343 2681

write_dump all custom pysimm.dump.tmp id q x y z vx vy vz
quit

################################################################################
##################################    Init    ##################################
################################################################################
units           real
atom_style      full
pair_style      lj/cut/coul/long 12.0  12.0
kspace_style    pppm 1e-4
bond_style      harmonic
angle_style     harmonic
dihedral_style  fourier
improper_style  cvff
special_bonds   amber
pair_modify     mix arithmetic
read_data       temp.lmps
  orthogonal box = (-198.965 -198.965 -198.965) to (198.965 198.965 198.965)
  reading atoms ...
  2840 atoms
  reading velocities ...
  2840 velocities
  scanning bonds ...
  scanning angles ...
  scanning dihedrals ...
  scanning impropers ...
  reading bonds ...
  3310 bonds
  reading angles ...
  6804 angles
  reading dihedrals ...
  12438 dihedrals
  reading impropers ...
  336 impropers
################################################################################

min_style cg
minimize 1e-06 1e-06 1000000 10000000
PPPM initialization ...
  G vector (1/distance) = 0.14341
  grid = 64 64 64
  stencil order = 5
  estimated absolute RMS force accuracy = 0.000726225
  estimated relative force accuracy = 2.187e-06
  3d grid and FFT values/proc = 328509 262144
  update every 1 steps, delay 0 steps, check yes
Step Temp E_pair E_mol TotEng Press
0    331.93043    9182.2377    21374.447    33365.653    28.448153
Loop time of 251.657 on 1 procs for 1356 steps with 2840 atoms

Minimization stats:
  Stopping criterion = energy tolerance
  Energy initial, next-to-last, final =
  Force two-norm initial, final = 78815 10.5679
  Force max component initial, final = 38461.3 1.77316
  Final line search alpha, max atom move = 0.00703832 0.0124801
  Iterations, force evaluations = 1356 2706

write_dump all custom pysimm.dump.tmp id q x y z vx vy vz
quit

################################################################################
##################################    Init    ##################################
################################################################################
units           real
atom_style      full
pair_style      lj/cut/coul/long 12.0  12.0
kspace_style    pppm 1e-4
bond_style      harmonic
angle_style     harmonic
dihedral_style  fourier
improper_style  cvff
special_bonds   amber
pair_modify     mix arithmetic
read_data       temp.lmps
  orthogonal box = (-200.57 -200.57 -200.57) to (200.57 200.57 200.57)
  reading atoms ...
  2908 atoms
  reading velocities ...
  2908 velocities
  scanning bonds ...
  scanning angles ...
  scanning dihedrals ...
  scanning impropers ...
  reading bonds ...
  3389 bonds
  reading angles ...
  6966 angles
  reading dihedrals ...
  12733 dihedrals
  reading impropers ...
  344 impropers
################################################################################

min_style cg
minimize 1e-06 1e-06 1000000 10000000
PPPM initialization ...
  G vector (1/distance) = 0.142776
  grid = 64 64 64
  stencil order = 5
  estimated absolute RMS force accuracy = 0.000745598
  estimated relative force accuracy = 2.24535e-06
  3d grid and FFT values/proc = 328509 262144
  update every 1 steps, delay 0 steps, check yes
Step Temp E_pair E_mol TotEng Press
0    331.54473    34438.808    22054.011    59365.725    134.92629
Loop time of 319.97 on 1 procs for 1844 steps with 2908 atoms

Minimization stats:
  Stopping criterion = energy tolerance
  Energy initial, next-to-last, final =
  Force two-norm initial, final = 394681 11.5636
  Force max component initial, final = 244410 1.70168
  Final line search alpha, max atom move = 0.00585241 0.00995892
  Iterations, force evaluations = 1844 3682

write_dump all custom pysimm.dump.tmp id q x y z vx vy vz
quit

################################################################################
##################################    Init    ##################################
################################################################################
units           real
atom_style      full
pair_style      lj/cut/coul/long 12.0  12.0
kspace_style    pppm 1e-4
bond_style      harmonic
angle_style     harmonic
dihedral_style  fourier
improper_style  cvff
special_bonds   amber
pair_modify     mix arithmetic
read_data       temp.lmps
  orthogonal box = (-202.149 -202.149 -202.149) to (202.149 202.149 202.149)
  reading atoms ...
  2976 atoms
  reading velocities ...
  2976 velocities
  scanning bonds ...
  scanning angles ...
  scanning dihedrals ...
  scanning impropers ...
  reading bonds ...
  3468 bonds
  reading angles ...
  7128 angles
  reading dihedrals ...
  13028 dihedrals
  reading impropers ...
  352 impropers
################################################################################

min_style cg
minimize 1e-06 1e-06 1000000 10000000
PPPM initialization ...
  G vector (1/distance) = 0.142161
  grid = 64 64 64
  stencil order = 5
  estimated absolute RMS force accuracy = 0.000764948
  estimated relative force accuracy = 2.30362e-06
  3d grid and FFT values/proc = 328509 262144
  update every 1 steps, delay 0 steps, check yes
Step Temp E_pair E_mol TotEng Press
0    319.42728    9407.3666    22256.113    34496.132    27.587177
Loop time of 103.487 on 1 procs for 572 steps with 2976 atoms

Minimization stats:
  Stopping criterion = linesearch alpha is zero
  Energy initial, next-to-last, final =
  Force two-norm initial, final = 66684.6 12.5823
  Force max component initial, final = 34710.7 1.15529
  Final line search alpha, max atom move = 4.16904e-11 4.81646e-11
  Iterations, force evaluations = 572 1191

write_dump all custom pysimm.dump.tmp id q x y z vx vy vz
quit

################################################################################
##################################    Init    ##################################
################################################################################
units           real
atom_style      full
pair_style      lj/cut/coul/long 12.0  12.0
kspace_style    pppm 1e-4
bond_style      harmonic
angle_style     harmonic
dihedral_style  fourier
improper_style  cvff
special_bonds   amber
pair_modify     mix arithmetic
read_data       temp.lmps
  orthogonal box = (-203.704 -203.704 -203.704) to (203.704 203.704 203.704)
  reading atoms ...
  3044 atoms
  reading velocities ...
  3044 velocities
  scanning bonds ...
  scanning angles ...
  scanning dihedrals ...
  scanning impropers ...
  reading bonds ...
  3547 bonds
  reading angles ...
  7290 angles
  reading dihedrals ...
  13323 dihedrals
  reading impropers ...
  360 impropers
################################################################################

min_style cg
minimize 1e-06 1e-06 1000000 10000000
PPPM initialization ...
  G vector (1/distance) = 0.141563
  grid = 64 64 64
  stencil order = 5
  estimated absolute RMS force accuracy = 0.000784277
  estimated relative force accuracy = 2.36183e-06
  3d grid and FFT values/proc = 328509 262144
  update every 1 steps, delay 0 steps, check yes
Step Temp E_pair E_mol TotEng Press
0    297.65528    10332.923    22897.816    35930.652    30.293141
Loop time of 220.288 on 1 procs for 1319 steps with 3044 atoms

Minimization stats:
  Stopping criterion = energy tolerance
  Energy initial, next-to-last, final =
  Force two-norm initial, final = 53773.4 9.25925
  Force max component initial, final = 23872.1 1.7047
  Final line search alpha, max atom move = 0.00829203 0.0141355
  Iterations, force evaluations = 1319 2631

write_dump all custom pysimm.dump.tmp id q x y z vx vy vz
quit

################################################################################
##################################    Init    ##################################
################################################################################
units           real
atom_style      full
pair_style      lj/cut/coul/long 12.0  12.0
kspace_style    pppm 1e-4
bond_style      harmonic
angle_style     harmonic
dihedral_style  fourier
improper_style  cvff
special_bonds   amber
pair_modify     mix arithmetic
read_data       temp.lmps
  orthogonal box = (-205.236 -205.236 -205.236) to (205.236 205.236 205.236)
  reading atoms ...
  3112 atoms
  reading velocities ...
  3112 velocities
  scanning bonds ...
  scanning angles ...
  scanning dihedrals ...
  scanning impropers ...
  reading bonds ...
  3626 bonds
  reading angles ...
  7452 angles
  reading dihedrals ...
  13618 dihedrals
  reading impropers ...
  368 impropers
################################################################################

min_style cg
minimize 1e-06 1e-06 1000000 10000000
PPPM initialization ...
  G vector (1/distance) = 0.140982
  grid = 64 64 64
  stencil order = 5
  estimated absolute RMS force accuracy = 0.000803591
  estimated relative force accuracy = 2.41999e-06
  3d grid and FFT values/proc = 328509 262144
  update every 1 steps, delay 0 steps, check yes
Step Temp E_pair E_mol TotEng Press
0    297.24615    9404.6353    23309.254    35470.342      25.4248
Loop time of 146.677 on 1 procs for 884 steps with 3112 atoms

Minimization stats:
  Stopping criterion = energy tolerance
  Energy initial, next-to-last, final =
  Force two-norm initial, final = 62278.9 11.0223
  Force max component initial, final = 37309.7 0.774862
  Final line search alpha, max atom move = 0.00825962 0.00640007
  Iterations, force evaluations = 884 1761

write_dump all custom pysimm.dump.tmp id q x y z vx vy vz
quit

################################################################################
##################################    Init    ##################################
################################################################################
units           real
atom_style      full
pair_style      lj/cut/coul/long 12.0  12.0
kspace_style    pppm 1e-4
bond_style      harmonic
angle_style     harmonic
dihedral_style  fourier
improper_style  cvff
special_bonds   amber
pair_modify     mix arithmetic
read_data       temp.lmps
  orthogonal box = (-206.745 -206.745 -206.745) to (206.745 206.745 206.745)
  reading atoms ...
  3180 atoms
  reading velocities ...
  3180 velocities
  scanning bonds ...
  scanning angles ...
  scanning dihedrals ...
  scanning impropers ...
  reading bonds ...
  3705 bonds
  reading angles ...
  7614 angles
  reading dihedrals ...
  13913 dihedrals
  reading impropers ...
  376 impropers
################################################################################

min_style cg
minimize 1e-06 1e-06 1000000 10000000
PPPM initialization ...
  G vector (1/distance) = 0.149765
  grid = 72 72 72
  stencil order = 5
  estimated absolute RMS force accuracy = 0.000553509
  estimated relative force accuracy = 1.66688e-06
  3d grid and FFT values/proc = 456533 373248
  update every 1 steps, delay 0 steps, check yes
Step Temp E_pair E_mol TotEng Press
0    271.94119    11194.929    23987.724    37759.567    31.724169
Loop time of 220.515 on 1 procs for 833 steps with 3180 atoms

Minimization stats:
  Stopping criterion = energy tolerance
  Energy initial, next-to-last, final =
  Force two-norm initial, final = 57888.9 9.79843
  Force max component initial, final = 18975.4 1.72528
  Final line search alpha, max atom move = 0.00729166 0.0125801
  Iterations, force evaluations = 833 1659

write_dump all custom pysimm.dump.tmp id q x y z vx vy vz
quit

################################################################################
##################################    Init    ##################################
################################################################################
units           real
atom_style      full
pair_style      lj/cut/coul/long 12.0  12.0
kspace_style    pppm 1e-4
bond_style      harmonic
angle_style     harmonic
dihedral_style  fourier
improper_style  cvff
special_bonds   amber
pair_modify     mix arithmetic
read_data       temp.lmps
  orthogonal box = (-208.233 -208.233 -208.233) to (208.233 208.233 208.233)
  reading atoms ...
  3248 atoms
  reading velocities ...
  3248 velocities
  scanning bonds ...
  scanning angles ...
  scanning dihedrals ...
  scanning impropers ...
  reading bonds ...
  3784 bonds
  reading angles ...
  7776 angles
  reading dihedrals ...
  14208 dihedrals
  reading impropers ...
  384 impropers
################################################################################

min_style cg
minimize 1e-06 1e-06 1000000 10000000
PPPM initialization ...
  G vector (1/distance) = 0.149188
  grid = 72 72 72
  stencil order = 5
  estimated absolute RMS force accuracy = 0.000567284
  estimated relative force accuracy = 1.70836e-06
  3d grid and FFT values/proc = 456533 373248
  update every 1 steps, delay 0 steps, check yes
Step Temp E_pair E_mol TotEng Press
0    255.91077    15739.931     24323.28    42540.092    47.707287
Loop time of 324.989 on 1 procs for 1236 steps with 3248 atoms

Minimization stats:
  Stopping criterion = energy tolerance
  Energy initial, next-to-last, final =
  Force two-norm initial, final = 121556 8.21279
  Force max component initial, final = 69866.6 1.1432
  Final line search alpha, max atom move = 0.00951878 0.0108819
  Iterations, force evaluations = 1236 2465

write_dump all custom pysimm.dump.tmp id q x y z vx vy vz
quit

################################################################################
##################################    Init    ##################################
################################################################################
units           real
atom_style      full
pair_style      lj/cut/coul/long 12.0  12.0
kspace_style    pppm 1e-4
bond_style      harmonic
angle_style     harmonic
dihedral_style  fourier
improper_style  cvff
special_bonds   amber
pair_modify     mix arithmetic
read_data       temp.lmps
  orthogonal box = (-209.699 -209.699 -209.699) to (209.699 209.699 209.699)
  reading atoms ...
  3316 atoms
  reading velocities ...
  3316 velocities
  scanning bonds ...
  scanning angles ...
  scanning dihedrals ...
  scanning impropers ...
  reading bonds ...
  3863 bonds
  reading angles ...
  7938 angles
  reading dihedrals ...
  14503 dihedrals
  reading impropers ...
  392 impropers
################################################################################

min_style cg
minimize 1e-06 1e-06 1000000 10000000
PPPM initialization ...
  G vector (1/distance) = 0.148624
  grid = 72 72 72
  stencil order = 5
  estimated absolute RMS force accuracy = 0.000581048
  estimated relative force accuracy = 1.74981e-06
  3d grid and FFT values/proc = 456533 373248
  update every 1 steps, delay 0 steps, check yes
Step Temp E_pair E_mol TotEng Press
0    254.55437    50196.734    24672.887    77384.971    174.55659
Loop time of 237.065 on 1 procs for 893 steps with 3316 atoms

Minimization stats:
  Stopping criterion = energy tolerance
  Energy initial, next-to-last, final =
  Force two-norm initial, final = 840030 10.3054
  Force max component initial, final = 468659 1.17794
  Final line search alpha, max atom move = 0.00947464 0.0111605
  Iterations, force evaluations = 893 1780

write_dump all custom pysimm.dump.tmp id q x y z vx vy vz
quit

################################################################################
##################################    Init    ##################################
################################################################################
units           real
atom_style      full
pair_style      lj/cut/coul/long 12.0  12.0
kspace_style    pppm 1e-4
bond_style      harmonic
angle_style     harmonic
dihedral_style  fourier
improper_style  cvff
special_bonds   amber
pair_modify     mix arithmetic
read_data       temp.lmps
  orthogonal box = (-211.145 -211.145 -211.145) to (211.145 211.145 211.145)
  reading atoms ...
  3384 atoms
  reading velocities ...
  3384 velocities
  scanning bonds ...
  scanning angles ...
  scanning dihedrals ...
  scanning impropers ...
  reading bonds ...
  3942 bonds
  reading angles ...
  8100 angles
  reading dihedrals ...
  14798 dihedrals
  reading impropers ...
  400 impropers
################################################################################

min_style cg
minimize 1e-06 1e-06 1000000 10000000
PPPM initialization ...
  G vector (1/distance) = 0.148071
  grid = 72 72 72
  stencil order = 5
  estimated absolute RMS force accuracy = 0.0005948
  estimated relative force accuracy = 1.79122e-06
  3d grid and FFT values/proc = 456533 373248
  update every 1 steps, delay 0 steps, check yes
Loop time of 363.887 on 1 procs for 1365 steps with 3384 atoms

Minimization stats:
  Stopping criterion = energy tolerance
  Energy initial, next-to-last, final =
  Force two-norm initial, final = 48020.9 10.0496
  Force max component initial, final = 18216.8 1.87396
  Final line search alpha, max atom move = 0.00803571 0.0150586
  Iterations, force evaluations = 1365 2724

write_dump all custom pysimm.dump.tmp id q x y z vx vy vz
quit
