################################################################################
##################################    Init    ##################################
################################################################################
units           real
atom_style      full
pair_style      lj/cut/coul/long 12.0  12.0
kspace_style    pppm 1e-4
bond_style      harmonic
angle_style     harmonic
dihedral_style  fourier
improper_style  cvff
special_bonds   amber
pair_modify     mix arithmetic
read_data       temp.lmps
  orthogonal box = (-102.372 -102.372 -102.372) to (102.372 102.372 102.372)
  reading atoms ...
  764 atoms
  reading velocities ...
  764 velocities
  scanning bonds ...
  scanning angles ...
  scanning dihedrals ...
  scanning impropers ...
  reading bonds ...
  892 bonds
  reading angles ...
  1860 angles
  reading dihedrals ...
  3448 dihedrals
  reading impropers ...
  60 impropers
################################################################################

min_style cg
minimize 1e-06 1e-06 1000000 10000000
PPPM initialization ...
  G vector (1/distance) = 0.141168
  grid = 32 32 32
  stencil order = 5
  estimated absolute RMS force accuracy = 0.00125595
  estimated relative force accuracy = 3.78224e-06
  3d grid and FFT values/proc = 50653 32768
  update every 1 steps, delay 0 steps, check yes
Step Temp E_pair E_mol TotEng Press
0    386.22046    1181.9857    7809.3932    9869.7825  -0.72412771
Loop time of 5.57655 on 1 procs for 287 steps with 764 atoms

Minimization stats:
  Stopping criterion = energy tolerance
  Energy initial, next-to-last, final =
  Force two-norm initial, final = 874.105 5.95973
  Force max component initial, final = 305.637 1.11161
  Final line search alpha, max atom move = 0.0569007 0.0632512
  Iterations, force evaluations = 287 573

write_dump all custom pysimm.dump.tmp id q x y z vx vy vz
quit

################################################################################
##################################    Init    ##################################
################################################################################
units           real
atom_style      full
pair_style      lj/cut/coul/long 12.0  12.0
kspace_style    pppm 1e-4
bond_style      harmonic
angle_style     harmonic
dihedral_style  fourier
improper_style  cvff
special_bonds   amber
pair_modify     mix arithmetic
read_data       temp.lmps
  orthogonal box = (-128.98 -128.98 -128.98) to (128.98 128.98 128.98)
  reading atoms ...
  842 atoms
  reading velocities ...
  842 velocities
  scanning bonds ...
  scanning angles ...
  scanning dihedrals ...
  scanning impropers ...
  reading bonds ...
  982 bonds
  reading angles ...
  2046 angles
  reading dihedrals ...
  3788 dihedrals
  reading impropers ...
  66 impropers
################################################################################

min_style cg
minimize 1e-06 1e-06 1000000 10000000
PPPM initialization ...
  G vector (1/distance) = 0.149912
  grid = 45 45 45
  stencil order = 5
  estimated absolute RMS force accuracy = 0.000642141
  estimated relative force accuracy = 1.93379e-06
  3d grid and FFT values/proc = 125000 91125
  update every 1 steps, delay 0 steps, check yes
Step Temp E_pair E_mol TotEng Press
0    747.70569    1234.8965    8762.0712    11871.362   -1.6980035
Loop time of 50.1111 on 1 procs for 1094 steps with 842 atoms

Minimization stats:
  Stopping criterion = energy tolerance
  Energy initial, next-to-last, final =
  Force two-norm initial, final = 1068.21 7.95868
  Force max component initial, final = 311.001 1.77719
  Final line search alpha, max atom move = 0.0373753 0.066423
  Iterations, force evaluations = 1094 2186

write_dump all custom pysimm.dump.tmp id q x y z vx vy vz
quit

################################################################################
##################################    Init    ##################################
################################################################################
units           real
atom_style      full
pair_style      lj/cut/coul/long 12.0  12.0
kspace_style    pppm 1e-4
bond_style      harmonic
angle_style     harmonic
dihedral_style  fourier
improper_style  cvff
special_bonds   amber
pair_modify     mix arithmetic
read_data       temp.lmps
  orthogonal box = (-133.144 -133.144 -133.144) to (133.144 133.144 133.144)
  reading atoms ...
  920 atoms
  reading velocities ...
  920 velocities
  scanning bonds ...
  scanning angles ...
  scanning dihedrals ...
  scanning impropers ...
  reading bonds ...
  1072 bonds
  reading angles ...
  2232 angles
  reading dihedrals ...
  4128 dihedrals
  reading impropers ...
  72 impropers
################################################################################

min_style cg
minimize 1e-06 1e-06 1000000 10000000
PPPM initialization ...
  G vector (1/distance) = 0.147357
  grid = 45 45 45
  stencil order = 5
  estimated absolute RMS force accuracy = 0.00071294
  estimated relative force accuracy = 2.147e-06
  3d grid and FFT values/proc = 125000 91125
  update every 1 steps, delay 0 steps, check yes
Step Temp E_pair E_mol TotEng Press
0    696.98386    1236.4059    9146.0648    12291.764  -0.19208822
Loop time of 32.7728 on 1 procs for 689 steps with 920 atoms

Minimization stats:
  Stopping criterion = energy tolerance
  Energy initial, next-to-last, final =
  Force two-norm initial, final = 1228.59 5.31988
  Force max component initial, final = 306.275 1.15832
  Final line search alpha, max atom move = 0.0596397 0.0690817
  Iterations, force evaluations = 689 1377

write_dump all custom pysimm.dump.tmp id q x y z vx vy vz
quit

################################################################################
##################################    Init    ##################################
################################################################################
units           real
atom_style      full
pair_style      lj/cut/coul/long 12.0  12.0
kspace_style    pppm 1e-4
bond_style      harmonic
angle_style     harmonic
dihedral_style  fourier
improper_style  cvff
special_bonds   amber
pair_modify     mix arithmetic
read_data       temp.lmps
  orthogonal box = (-137.062 -137.062 -137.062) to (137.062 137.062 137.062)
  reading atoms ...
  998 atoms
  reading velocities ...
  998 velocities
  scanning bonds ...
  scanning angles ...
  scanning dihedrals ...
  scanning impropers ...
  reading bonds ...
  1162 bonds
  reading angles ...
  2418 angles
  reading dihedrals ...
  4468 dihedrals
  reading impropers ...
  78 impropers
################################################################################

min_style cg
minimize 1e-06 1e-06 1000000 10000000
PPPM initialization ...
  G vector (1/distance) = 0.145036
  grid = 45 45 45
  stencil order = 5
  estimated absolute RMS force accuracy = 0.000783329
  estimated relative force accuracy = 2.35897e-06
  3d grid and FFT values/proc = 125000 91125
  update every 1 steps, delay 0 steps, check yes
Step Temp E_pair E_mol TotEng Press
0    844.48624    1429.0806     10063.71    14002.492    1.1969026
Loop time of 46.5044 on 1 procs for 963 steps with 998 atoms

Minimization stats:
  Stopping criterion = energy tolerance
  Energy initial, next-to-last, final =
  Force two-norm initial, final = 2004.82 6.17463
  Force max component initial, final = 1017.86 2.51949
  Final line search alpha, max atom move = 0.0554604 0.139732
  Iterations, force evaluations = 963 1923

write_dump all custom pysimm.dump.tmp id q x y z vx vy vz
quit

################################################################################
##################################    Init    ##################################
################################################################################
units           real
atom_style      full
pair_style      lj/cut/coul/long 12.0  12.0
kspace_style    pppm 1e-4
bond_style      harmonic
angle_style     harmonic
dihedral_style  fourier
improper_style  cvff
special_bonds   amber
pair_modify     mix arithmetic
read_data       temp.lmps
  orthogonal box = (-140.768 -140.768 -140.768) to (140.768 140.768 140.768)
  reading atoms ...
  1076 atoms
  reading velocities ...
  1076 velocities
  scanning bonds ...
  scanning angles ...
  scanning dihedrals ...
  scanning impropers ...
  reading bonds ...
  1252 bonds
  reading angles ...
  2604 angles
  reading dihedrals ...
  4808 dihedrals
  reading impropers ...
  84 impropers
################################################################################

min_style cg
minimize 1e-06 1e-06 1000000 10000000
PPPM initialization ...
  G vector (1/distance) = 0.14292
  grid = 45 45 45
  stencil order = 5
  estimated absolute RMS force accuracy = 0.000853304
  estimated relative force accuracy = 2.5697e-06
  3d grid and FFT values/proc = 125000 91125
  update every 1 steps, delay 0 steps, check yes
Step Temp E_pair E_mol TotEng Press
0    775.48977    2861.9216    10478.894    15825.772    17.921253
Loop time of 31.6928 on 1 procs for 652 steps with 1076 atoms

Minimization stats:
  Stopping criterion = energy tolerance
  Energy initial, next-to-last, final =
  Force two-norm initial, final = 15617.4 13.0199
  Force max component initial, final = 7254.48 4.17716
  Final line search alpha, max atom move = 0.0194096 0.0810769
  Iterations, force evaluations = 652 1300

write_dump all custom pysimm.dump.tmp id q x y z vx vy vz
quit

################################################################################
##################################    Init    ##################################
################################################################################
units           real
atom_style      full
pair_style      lj/cut/coul/long 12.0  12.0
kspace_style    pppm 1e-4
bond_style      harmonic
angle_style     harmonic
dihedral_style  fourier
improper_style  cvff
special_bonds   amber
pair_modify     mix arithmetic
read_data       temp.lmps
  orthogonal box = (-144.289 -144.289 -144.289) to (144.289 144.289 144.289)
  reading atoms ...
  1154 atoms
  reading velocities ...
  1154 velocities
  scanning bonds ...
  scanning angles ...
  scanning dihedrals ...
  scanning impropers ...
  reading bonds ...
  1342 bonds
  reading angles ...
  2790 angles
  reading dihedrals ...
  5148 dihedrals
  reading impropers ...
  90 impropers
################################################################################

min_style cg
minimize 1e-06 1e-06 1000000 10000000
PPPM initialization ...
  G vector (1/distance) = 0.140992
  grid = 45 45 45
  stencil order = 5
  estimated absolute RMS force accuracy = 0.000922953
  estimated relative force accuracy = 2.77945e-06
  3d grid and FFT values/proc = 125000 91125
  update every 1 steps, delay 0 steps, check yes
Step Temp E_pair E_mol TotEng Press
0    723.11389    1424.6724    11037.398    14947.322   -1.4875778
Loop time of 69.9917 on 1 procs for 1422 steps with 1154 atoms

Minimization stats:
  Stopping criterion = energy tolerance
  Energy initial, next-to-last, final =
  Force two-norm initial, final = 1817.91 7.46463
  Force max component initial, final = 466.563 3.10258
  Final line search alpha, max atom move = 0.0338341 0.104973
  Iterations, force evaluations = 1422 2841

write_dump all custom pysimm.dump.tmp id q x y z vx vy vz
quit

################################################################################
##################################    Init    ##################################
################################################################################
units           real
atom_style      full
pair_style      lj/cut/coul/long 12.0  12.0
kspace_style    pppm 1e-4
bond_style      harmonic
angle_style     harmonic
dihedral_style  fourier
improper_style  cvff
special_bonds   amber
pair_modify     mix arithmetic
read_data       temp.lmps
  orthogonal box = (-147.646 -147.646 -147.646) to (147.646 147.646 147.646)
  reading atoms ...
  1232 atoms
  reading velocities ...
  1232 velocities
  scanning bonds ...
  scanning angles ...
  scanning dihedrals ...
  scanning impropers ...
  reading bonds ...
  1432 bonds
  reading angles ...
  2976 angles
  reading dihedrals ...
  5488 dihedrals
  reading impropers ...
  96 impropers
################################################################################

min_style cg
minimize 1e-06 1e-06 1000000 10000000
PPPM initialization ...
  G vector (1/distance) = 0.144252
  grid = 48 48 48
  stencil order = 5
  estimated absolute RMS force accuracy = 0.000802163
  estimated relative force accuracy = 2.41569e-06
  3d grid and FFT values/proc = 148877 110592
  update every 1 steps, delay 0 steps, check yes
Step Temp E_pair E_mol TotEng Press
0    550.97545    1711.6066    11394.569    15127.912  -0.87642449
Loop time of 66.7688 on 1 procs for 1077 steps with 1232 atoms

Minimization stats:
  Stopping criterion = linesearch alpha is zero
  Energy initial, next-to-last, final =
  Force two-norm initial, final = 5017.79 14.8483
  Force max component initial, final = 2243.68 5.50361
  Final line search alpha, max atom move = 3.02168e-11 1.66301e-10
  Iterations, force evaluations = 1077 2206

write_dump all custom pysimm.dump.tmp id q x y z vx vy vz
quit

################################################################################
##################################    Init    ##################################
################################################################################
units           real
atom_style      full
pair_style      lj/cut/coul/long 12.0  12.0
kspace_style    pppm 1e-4
bond_style      harmonic
angle_style     harmonic
dihedral_style  fourier
improper_style  cvff
special_bonds   amber
pair_modify     mix arithmetic
read_data       temp.lmps
  orthogonal box = (-150.856 -150.856 -150.856) to (150.856 150.856 150.856)
  reading atoms ...
  1310 atoms
  reading velocities ...
  1310 velocities
  scanning bonds ...
  scanning angles ...
  scanning dihedrals ...
  scanning impropers ...
  reading bonds ...
  1522 bonds
  reading angles ...
  3162 angles
  reading dihedrals ...
  5828 dihedrals
  reading impropers ...
  102 impropers
################################################################################

min_style cg
minimize 1e-06 1e-06 1000000 10000000
PPPM initialization ...
  G vector (1/distance) = 0.142553
  grid = 48 48 48
  stencil order = 5
  estimated absolute RMS force accuracy = 0.000859676
  estimated relative force accuracy = 2.58889e-06
  3d grid and FFT values/proc = 148877 110592
  update every 1 steps, delay 0 steps, check yes
Step Temp E_pair E_mol TotEng Press
0    595.13177    4301.5322    12002.589    18626.254    26.106476
Loop time of 55.4435 on 1 procs for 898 steps with 1310 atoms

Minimization stats:
  Stopping criterion = energy tolerance
  Energy initial, next-to-last, final =
  Force two-norm initial, final = 43953.2 9.09517
  Force max component initial, final = 25431.9 2.66631
  Final line search alpha, max atom move = 0.0114121 0.0304282
  Iterations, force evaluations = 898 1793

write_dump all custom pysimm.dump.tmp id q x y z vx vy vz
quit

################################################################################
##################################    Init    ##################################
################################################################################
units           real
atom_style      full
pair_style      lj/cut/coul/long 12.0  12.0
kspace_style    pppm 1e-4
bond_style      harmonic
angle_style     harmonic
dihedral_style  fourier
improper_style  cvff
special_bonds   amber
pair_modify     mix arithmetic
read_data       temp.lmps
  orthogonal box = (-153.936 -153.936 -153.936) to (153.936 153.936 153.936)
  reading atoms ...
  1388 atoms
  reading velocities ...
  1388 velocities
  scanning bonds ...
  scanning angles ...
  scanning dihedrals ...
  scanning impropers ...
  reading bonds ...
  1612 bonds
  reading angles ...
  3348 angles
  reading dihedrals ...
  6168 dihedrals
  reading impropers ...
  108 impropers
################################################################################

min_style cg
minimize 1e-06 1e-06 1000000 10000000
PPPM initialization ...
  G vector (1/distance) = 0.140978
  grid = 48 48 48
  stencil order = 5
  estimated absolute RMS force accuracy = 0.000916992
  estimated relative force accuracy = 2.76149e-06
  3d grid and FFT values/proc = 148877 110592
  update every 1 steps, delay 0 steps, check yes
Step Temp E_pair E_mol TotEng Press
0    649.58557    1384.9964    12542.624    16613.256   -4.6012637
Loop time of 33.517 on 1 procs for 527 steps with 1388 atoms

Minimization stats:
  Stopping criterion = energy tolerance
  Energy initial, next-to-last, final =
  Force two-norm initial, final = 2010.07 7.85418
  Force max component initial, final = 512.556 1.54747
  Final line search alpha, max atom move = 0.0567191 0.0877713
  Iterations, force evaluations = 527 1051

write_dump all custom pysimm.dump.tmp id q x y z vx vy vz
quit

################################################################################
##################################    Init    ##################################
################################################################################
units           real
atom_style      full
pair_style      lj/cut/coul/long 12.0  12.0
kspace_style    pppm 1e-4
bond_style      harmonic
angle_style     harmonic
dihedral_style  fourier
improper_style  cvff
special_bonds   amber
pair_modify     mix arithmetic
read_data       temp.lmps
  orthogonal box = (-156.897 -156.897 -156.897) to (156.897 156.897 156.897)
  reading atoms ...
  1466 atoms
  reading velocities ...
  1466 velocities
  scanning bonds ...
  scanning angles ...
  scanning dihedrals ...
  scanning impropers ...
  reading bonds ...
  1702 bonds
  reading angles ...
  3534 angles
  reading dihedrals ...
  6508 dihedrals
  reading impropers ...
  114 impropers
################################################################################

min_style cg
minimize 1e-06 1e-06 1000000 10000000
PPPM initialization ...
  G vector (1/distance) = 0.142675
  grid = 50 50 50
  stencil order = 5
  estimated absolute RMS force accuracy = 0.000851896
  estimated relative force accuracy = 2.56546e-06
  3d grid and FFT values/proc = 166375 125000
  update every 1 steps, delay 0 steps, check yes
Step Temp E_pair E_mol TotEng Press
0    525.22842     1814.985    12959.864    17068.462   0.11730803
Loop time of 26.6932 on 1 procs for 368 steps with 1466 atoms

Minimization stats:
  Stopping criterion = energy tolerance
  Energy initial, next-to-last, final =
  Force two-norm initial, final = 3935.67 6.39151
  Force max component initial, final = 1597.91 1.81458
  Final line search alpha, max atom move = 0.0396428 0.0719349
  Iterations, force evaluations = 368 733

write_dump all custom pysimm.dump.tmp id q x y z vx vy vz
quit

################################################################################
##################################    Init    ##################################
################################################################################
units           real
atom_style      full
pair_style      lj/cut/coul/long 12.0  12.0
kspace_style    pppm 1e-4
bond_style      harmonic
angle_style     harmonic
dihedral_style  fourier
improper_style  cvff
special_bonds   amber
pair_modify     mix arithmetic
read_data       temp.lmps
  orthogonal box = (-159.75 -159.75 -159.75) to (159.75 159.75 159.75)
  reading atoms ...
  1544 atoms
  reading velocities ...
  1544 velocities
  scanning bonds ...
  scanning angles ...
  scanning dihedrals ...
  scanning impropers ...
  reading bonds ...
  1792 bonds
  reading angles ...
  3720 angles
  reading dihedrals ...
  6848 dihedrals
  reading impropers ...
  120 impropers
################################################################################

min_style cg
minimize 1e-06 1e-06 1000000 10000000
PPPM initialization ...
  G vector (1/distance) = 0.141268
  grid = 50 50 50
  stencil order = 5
  estimated absolute RMS force accuracy = 0.000902599
  estimated relative force accuracy = 2.71815e-06
  3d grid and FFT values/proc = 166375 125000
  update every 1 steps, delay 0 steps, check yes
Step Temp E_pair E_mol TotEng Press
0    557.88621    6247.6053    13657.539     22471.08    36.029526
Loop time of 20.1974 on 1 procs for 275 steps with 1544 atoms

Minimization stats:
  Stopping criterion = energy tolerance
  Energy initial, next-to-last, final =
  Force two-norm initial, final = 75971.5 31.4023
  Force max component initial, final = 40599.2 12.0659
  Final line search alpha, max atom move = 0.00701556 0.0846491
  Iterations, force evaluations = 275 546

write_dump all custom pysimm.dump.tmp id q x y z vx vy vz
quit

################################################################################
##################################    Init    ##################################
################################################################################
units           real
atom_style      full
pair_style      lj/cut/coul/long 12.0  12.0
kspace_style    pppm 1e-4
bond_style      harmonic
angle_style     harmonic
dihedral_style  fourier
improper_style  cvff
special_bonds   amber
pair_modify     mix arithmetic
read_data       temp.lmps
  orthogonal box = (-102.372 -102.372 -102.372) to (102.372 102.372 102.372)
  reading atoms ...
  764 atoms
  reading velocities ...
  764 velocities
  scanning bonds ...
  scanning angles ...
  scanning dihedrals ...
  scanning impropers ...
  reading bonds ...
  892 bonds
  reading angles ...
  1860 angles
  reading dihedrals ...
  3448 dihedrals
  reading impropers ...
  60 impropers
################################################################################

min_style cg
minimize 1e-06 1e-06 1000000 10000000
PPPM initialization ...
  G vector (1/distance) = 0.141168
  grid = 32 32 32
  stencil order = 5
  estimated absolute RMS force accuracy = 0.00125595
  estimated relative force accuracy = 3.78224e-06
  3d grid and FFT values/proc = 50653 32768
  update every 1 steps, delay 0 steps, check yes
Step Temp E_pair E_mol TotEng Press
0    276.94394    871.94229    7344.0028    8845.8148   -3.7574081
Loop time of 4.382 on 1 procs for 215 steps with 764 atoms

Minimization stats:
  Stopping criterion = energy tolerance
  Energy initial, next-to-last, final =
  Force two-norm initial, final = 866.323 10.39
  Force max component initial, final = 288.062 3.06076
  Final line search alpha, max atom move = 0.0349162 0.10687
  Iterations, force evaluations = 215 427

write_dump all custom pysimm.dump.tmp id q x y z vx vy vz
quit

################################################################################
##################################    Init    ##################################
################################################################################
units           real
atom_style      full
pair_style      lj/cut/coul/long 12.0  12.0
kspace_style    pppm 1e-4
bond_style      harmonic
angle_style     harmonic
dihedral_style  fourier
improper_style  cvff
special_bonds   amber
pair_modify     mix arithmetic
read_data       temp.lmps
  orthogonal box = (-128.98 -128.98 -128.98) to (128.98 128.98 128.98)
  reading atoms ...
  842 atoms
  reading velocities ...
  842 velocities
  scanning bonds ...
  scanning angles ...
  scanning dihedrals ...
  scanning impropers ...
  reading bonds ...
  982 bonds
  reading angles ...
  2046 angles
  reading dihedrals ...
  3788 dihedrals
  reading impropers ...
  66 impropers
################################################################################

min_style cg
minimize 1e-06 1e-06 1000000 10000000
PPPM initialization ...
  G vector (1/distance) = 0.149912
  grid = 45 45 45
  stencil order = 5
  estimated absolute RMS force accuracy = 0.000642141
  estimated relative force accuracy = 1.93379e-06
  3d grid and FFT values/proc = 125000 91125
  update every 1 steps, delay 0 steps, check yes
Step Temp E_pair E_mol TotEng Press
0    1160.6829    902.24178    8329.4041    12141.317    1.4657894
Loop time of 23.1101 on 1 procs for 492 steps with 842 atoms

Minimization stats:
  Stopping criterion = energy tolerance
  Energy initial, next-to-last, final =
  Force two-norm initial, final = 1056 4.66052
  Force max component initial, final = 305.786 0.57966
  Final line search alpha, max atom move = 0.05051 0.0292786
  Iterations, force evaluations = 492 983

write_dump all custom pysimm.dump.tmp id q x y z vx vy vz
quit

################################################################################
##################################    Init    ##################################
################################################################################
units           real
atom_style      full
pair_style      lj/cut/coul/long 12.0  12.0
kspace_style    pppm 1e-4
bond_style      harmonic
angle_style     harmonic
dihedral_style  fourier
improper_style  cvff
special_bonds   amber
pair_modify     mix arithmetic
read_data       temp.lmps
  orthogonal box = (-133.144 -133.144 -133.144) to (133.144 133.144 133.144)
  reading atoms ...
  920 atoms
  reading velocities ...
  920 velocities
  scanning bonds ...
  scanning angles ...
  scanning dihedrals ...
  scanning impropers ...
  reading bonds ...
  1072 bonds
  reading angles ...
  2232 angles
  reading dihedrals ...
  4128 dihedrals
  reading impropers ...
  72 impropers
################################################################################

min_style cg
minimize 1e-06 1e-06 1000000 10000000
PPPM initialization ...
  G vector (1/distance) = 0.147357
  grid = 45 45 45
  stencil order = 5
  estimated absolute RMS force accuracy = 0.00071294
  estimated relative force accuracy = 2.147e-06
  3d grid and FFT values/proc = 125000 91125
  update every 1 steps, delay 0 steps, check yes
Step Temp E_pair E_mol TotEng Press
0     1388.412    949.67525    9165.3079     13918.35  0.051689942
Loop time of 17.2795 on 1 procs for 365 steps with 920 atoms

Minimization stats:
  Stopping criterion = energy tolerance
  Energy initial, next-to-last, final =
  Force two-norm initial, final = 1216.05 9.83425
  Force max component initial, final = 307.727 2.3549
  Final line search alpha, max atom move = 0.0587122 0.138262
  Iterations, force evaluations = 365 726

write_dump all custom pysimm.dump.tmp id q x y z vx vy vz
quit

################################################################################
##################################    Init    ##################################
################################################################################
units           real
atom_style      full
pair_style      lj/cut/coul/long 12.0  12.0
kspace_style    pppm 1e-4
bond_style      harmonic
angle_style     harmonic
dihedral_style  fourier
improper_style  cvff
special_bonds   amber
pair_modify     mix arithmetic
read_data       temp.lmps
  orthogonal box = (-137.062 -137.062 -137.062) to (137.062 137.062 137.062)
  reading atoms ...
  998 atoms
  reading velocities ...
  998 velocities
  scanning bonds ...
  scanning angles ...
  scanning dihedrals ...
  scanning impropers ...
  reading bonds ...
  1162 bonds
  reading angles ...
  2418 angles
  reading dihedrals ...
  4468 dihedrals
  reading impropers ...
  78 impropers
################################################################################

min_style cg
minimize 1e-06 1e-06 1000000 10000000
PPPM initialization ...
  G vector (1/distance) = 0.145036
  grid = 45 45 45
  stencil order = 5
  estimated absolute RMS force accuracy = 0.000783329
  estimated relative force accuracy = 2.35897e-06
  3d grid and FFT values/proc = 125000 91125
  update every 1 steps, delay 0 steps, check yes
Step Temp E_pair E_mol TotEng Press
0    1532.4133    956.22743    9789.6108    15299.968   0.98911124
Loop time of 27.7706 on 1 procs for 570 steps with 998 atoms

Minimization stats:
  Stopping criterion = energy tolerance
  Energy initial, next-to-last, final =
  Force two-norm initial, final = 1405.17 5.9873
  Force max component initial, final = 376.379 1.62645
  Final line search alpha, max atom move = 0.050663 0.0824006
  Iterations, force evaluations = 570 1131

write_dump all custom pysimm.dump.tmp id q x y z vx vy vz
quit

################################################################################
##################################    Init    ##################################
################################################################################
units           real
atom_style      full
pair_style      lj/cut/coul/long 12.0  12.0
kspace_style    pppm 1e-4
bond_style      harmonic
angle_style     harmonic
dihedral_style  fourier
improper_style  cvff
special_bonds   amber
pair_modify     mix arithmetic
read_data       temp.lmps
  orthogonal box = (-140.768 -140.768 -140.768) to (140.768 140.768 140.768)
  reading atoms ...
  1076 atoms
  reading velocities ...
  1076 velocities
  scanning bonds ...
  scanning angles ...
  scanning dihedrals ...
  scanning impropers ...
  reading bonds ...
  1252 bonds
  reading angles ...
  2604 angles
  reading dihedrals ...
  4808 dihedrals
  reading impropers ...
  84 impropers
################################################################################

min_style cg
minimize 1e-06 1e-06 1000000 10000000
PPPM initialization ...
  G vector (1/distance) = 0.14292
  grid = 45 45 45
  stencil order = 5
  estimated absolute RMS force accuracy = 0.000853304
  estimated relative force accuracy = 2.5697e-06
  3d grid and FFT values/proc = 125000 91125
  update every 1 steps, delay 0 steps, check yes
Step Temp E_pair E_mol TotEng Press
0    1287.7999    19501.944     10198.45    33826.982    229.40234
Loop time of 28.7785 on 1 procs for 565 steps with 1076 atoms

Minimization stats:
  Stopping criterion = energy tolerance
  Energy initial, next-to-last, final =
  Force two-norm initial, final = 334008 7.43739
  Force max component initial, final = 175171 3.3876
  Final line search alpha, max atom move = 0.0382824 0.129686
  Iterations, force evaluations = 565 1126

write_dump all custom pysimm.dump.tmp id q x y z vx vy vz
quit

################################################################################
##################################    Init    ##################################
################################################################################
units           real
atom_style      full
pair_style      lj/cut/coul/long 12.0  12.0
kspace_style    pppm 1e-4
bond_style      harmonic
angle_style     harmonic
dihedral_style  fourier
improper_style  cvff
special_bonds   amber
pair_modify     mix arithmetic
read_data       temp.lmps
  orthogonal box = (-144.289 -144.289 -144.289) to (144.289 144.289 144.289)
  reading atoms ...
  1154 atoms
  reading velocities ...
  1154 velocities
  scanning bonds ...
  scanning angles ...
  scanning dihedrals ...
  scanning impropers ...
  reading bonds ...
  1342 bonds
  reading angles ...
  2790 angles
  reading dihedrals ...
  5148 dihedrals
  reading impropers ...
  90 impropers
################################################################################

min_style cg
minimize 1e-06 1e-06 1000000 10000000
PPPM initialization ...
  G vector (1/distance) = 0.140992
  grid = 45 45 45
  stencil order = 5
  estimated absolute RMS force accuracy = 0.000922953
  estimated relative force accuracy = 2.77945e-06
  3d grid and FFT values/proc = 125000 91125
  update every 1 steps, delay 0 steps, check yes
Step Temp E_pair E_mol TotEng Press
0    1072.4162    1000.9573    10574.174    15260.891  -0.37017553
Loop time of 44.6145 on 1 procs for 873 steps with 1154 atoms

Minimization stats:
  Stopping criterion = energy tolerance
  Energy initial, next-to-last, final =
  Force two-norm initial, final = 1734.62 7.9914
  Force max component initial, final = 441.222 3.29872
  Final line search alpha, max atom move = 0.0486689 0.160545
  Iterations, force evaluations = 873 1741

write_dump all custom pysimm.dump.tmp id q x y z vx vy vz
quit

################################################################################
##################################    Init    ##################################
################################################################################
units           real
atom_style      full
pair_style      lj/cut/coul/long 12.0  12.0
kspace_style    pppm 1e-4
bond_style      harmonic
angle_style     harmonic
dihedral_style  fourier
improper_style  cvff
special_bonds   amber
pair_modify     mix arithmetic
read_data       temp.lmps
  orthogonal box = (-147.646 -147.646 -147.646) to (147.646 147.646 147.646)
  reading atoms ...
  1232 atoms
  reading velocities ...
  1232 velocities
  scanning bonds ...
  scanning angles ...
  scanning dihedrals ...
  scanning impropers ...
  reading bonds ...
  1432 bonds
  reading angles ...
  2976 angles
  reading dihedrals ...
  5488 dihedrals
  reading impropers ...
  96 impropers
################################################################################

min_style cg
minimize 1e-06 1e-06 1000000 10000000
PPPM initialization ...
  G vector (1/distance) = 0.144252
  grid = 48 48 48
  stencil order = 5
  estimated absolute RMS force accuracy = 0.000802163
  estimated relative force accuracy = 2.41569e-06
  3d grid and FFT values/proc = 148877 110592
  update every 1 steps, delay 0 steps, check yes
Step Temp E_pair E_mol TotEng Press
0    863.65707    1769.7656    10993.397    15932.246     6.085042
Loop time of 33.9777 on 1 procs for 563 steps with 1232 atoms

Minimization stats:
  Stopping criterion = energy tolerance
  Energy initial, next-to-last, final =
  Force two-norm initial, final = 10370.7 5.12904
  Force max component initial, final = 6695.97 1.42819
  Final line search alpha, max atom move = 0.028788 0.0411149
  Iterations, force evaluations = 563 1120

write_dump all custom pysimm.dump.tmp id q x y z vx vy vz
quit

################################################################################
##################################    Init    ##################################
################################################################################
units           real
atom_style      full
pair_style      lj/cut/coul/long 12.0  12.0
kspace_style    pppm 1e-4
bond_style      harmonic
angle_style     harmonic
dihedral_style  fourier
improper_style  cvff
special_bonds   amber
pair_modify     mix arithmetic
read_data       temp.lmps
  orthogonal box = (-150.856 -150.856 -150.856) to (150.856 150.856 150.856)
  reading atoms ...
  1310 atoms
  reading velocities ...
  1310 velocities
  scanning bonds ...
  scanning angles ...
  scanning dihedrals ...
  scanning impropers ...
  reading bonds ...
  1522 bonds
  reading angles ...
  3162 angles
  reading dihedrals ...
  5828 dihedrals
  reading impropers ...
  102 impropers
################################################################################

min_style cg
minimize 1e-06 1e-06 1000000 10000000
PPPM initialization ...
  G vector (1/distance) = 0.142553
  grid = 48 48 48
  stencil order = 5
  estimated absolute RMS force accuracy = 0.000859676
  estimated relative force accuracy = 2.58889e-06
  3d grid and FFT values/proc = 148877 110592
  update every 1 steps, delay 0 steps, check yes
Step Temp E_pair E_mol TotEng Press
0    681.60982     2073.634    11496.116     16229.31    7.6989465
Loop time of 24.3478 on 1 procs for 394 steps with 1310 atoms

Minimization stats:
  Stopping criterion = energy tolerance
  Energy initial, next-to-last, final =
  Force two-norm initial, final = 8838.41 6.09231
  Force max component initial, final = 4330.85 1.01406
  Final line search alpha, max atom move = 0.0380852 0.0386206
  Iterations, force evaluations = 394 783

write_dump all custom pysimm.dump.tmp id q x y z vx vy vz
quit

################################################################################
##################################    Init    ##################################
################################################################################
units           real
atom_style      full
pair_style      lj/cut/coul/long 12.0  12.0
kspace_style    pppm 1e-4
bond_style      harmonic
angle_style     harmonic
dihedral_style  fourier
improper_style  cvff
special_bonds   amber
pair_modify     mix arithmetic
read_data       temp.lmps
  orthogonal box = (-153.936 -153.936 -153.936) to (153.936 153.936 153.936)
  reading atoms ...
  1388 atoms
  reading velocities ...
  1388 velocities
  scanning bonds ...
  scanning angles ...
  scanning dihedrals ...
  scanning impropers ...
  reading bonds ...
  1612 bonds
  reading angles ...
  3348 angles
  reading dihedrals ...
  6168 dihedrals
  reading impropers ...
  108 impropers
################################################################################

min_style cg
minimize 1e-06 1e-06 1000000 10000000
PPPM initialization ...
  G vector (1/distance) = 0.140978
  grid = 48 48 48
  stencil order = 5
  estimated absolute RMS force accuracy = 0.000916992
  estimated relative force accuracy = 2.76149e-06
  3d grid and FFT values/proc = 148877 110592
  update every 1 steps, delay 0 steps, check yes
Step Temp E_pair E_mol TotEng Press
0    720.03087    1423.9639    12454.989    16855.837  -0.69407613
Loop time of 75.1594 on 1 procs for 1194 steps with 1388 atoms

Minimization stats:
  Stopping criterion = energy tolerance
  Energy initial, next-to-last, final =
  Force two-norm initial, final = 5165.16 9.89154
  Force max component initial, final = 2248.08 2.61531
  Final line search alpha, max atom move = 0.0309246 0.0808773
  Iterations, force evaluations = 1194 2383

write_dump all custom pysimm.dump.tmp id q x y z vx vy vz
quit

################################################################################
##################################    Init    ##################################
################################################################################
units           real
atom_style      full
pair_style      lj/cut/coul/long 12.0  12.0
kspace_style    pppm 1e-4
bond_style      harmonic
angle_style     harmonic
dihedral_style  fourier
improper_style  cvff
special_bonds   amber
pair_modify     mix arithmetic
read_data       temp.lmps
  orthogonal box = (-156.897 -156.897 -156.897) to (156.897 156.897 156.897)
  reading atoms ...
  1466 atoms
  reading velocities ...
  1466 velocities
  scanning bonds ...
  scanning angles ...
  scanning dihedrals ...
  scanning impropers ...
  reading bonds ...
  1702 bonds
  reading angles ...
  3534 angles
  reading dihedrals ...
  6508 dihedrals
  reading impropers ...
  114 impropers
################################################################################

min_style cg
minimize 1e-06 1e-06 1000000 10000000
PPPM initialization ...
  G vector (1/distance) = 0.142675
  grid = 50 50 50
  stencil order = 5
  estimated absolute RMS force accuracy = 0.000851896
  estimated relative force accuracy = 2.56546e-06
  3d grid and FFT values/proc = 166375 125000
  update every 1 steps, delay 0 steps, check yes
Step Temp E_pair E_mol TotEng Press
0    651.09352    1561.0895    12841.673    17246.014     1.429148
Loop time of 30.8003 on 1 procs for 423 steps with 1466 atoms

Minimization stats:
  Stopping criterion = energy tolerance
  Energy initial, next-to-last, final =
  Force two-norm initial, final = 3236.03 6.48713
  Force max component initial, final = 1470.64 1.05594
  Final line search alpha, max atom move = 0.0579849 0.0612284
  Iterations, force evaluations = 423 842

write_dump all custom pysimm.dump.tmp id q x y z vx vy vz
quit

################################################################################
##################################    Init    ##################################
################################################################################
units           real
atom_style      full
pair_style      lj/cut/coul/long 12.0  12.0
kspace_style    pppm 1e-4
bond_style      harmonic
angle_style     harmonic
dihedral_style  fourier
improper_style  cvff
special_bonds   amber
pair_modify     mix arithmetic
read_data       temp.lmps
  orthogonal box = (-159.75 -159.75 -159.75) to (159.75 159.75 159.75)
  reading atoms ...
  1544 atoms
  reading velocities ...
  1544 velocities
  scanning bonds ...
  scanning angles ...
  scanning dihedrals ...
  scanning impropers ...
  reading bonds ...
  1792 bonds
  reading angles ...
  3720 angles
  reading dihedrals ...
  6848 dihedrals
  reading impropers ...
  120 impropers
################################################################################

min_style cg
minimize 1e-06 1e-06 1000000 10000000
PPPM initialization ...
  G vector (1/distance) = 0.141268
  grid = 50 50 50
  stencil order = 5
  estimated absolute RMS force accuracy = 0.000902599
  estimated relative force accuracy = 2.71815e-06
  3d grid and FFT values/proc = 166375 125000
  update every 1 steps, delay 0 steps, check yes
Step Temp E_pair E_mol TotEng Press
0    611.66512    2615.3233    13200.455    18629.064    9.0013248
Loop time of 30.4359 on 1 procs for 414 steps with 1544 atoms

Minimization stats:
  Stopping criterion = energy tolerance
  Energy initial, next-to-last, final =
  Force two-norm initial, final = 17670.4 20.3404
  Force max component initial, final = 10985.9 7.67605
  Final line search alpha, max atom move = 0.0154806 0.11883
  Iterations, force evaluations = 414 821

write_dump all custom pysimm.dump.tmp id q x y z vx vy vz
quit

################################################################################
##################################    Init    ##################################
################################################################################
units           real
atom_style      full
pair_style      lj/cut/coul/long 12.0  12.0
kspace_style    pppm 1e-4
bond_style      harmonic
angle_style     harmonic
dihedral_style  fourier
improper_style  cvff
special_bonds   amber
pair_modify     mix arithmetic
read_data       temp.lmps
  orthogonal box = (-162.505 -162.505 -162.505) to (162.505 162.505 162.505)
  reading atoms ...
  1622 atoms
  reading velocities ...
  1622 velocities
  scanning bonds ...
  scanning angles ...
  scanning dihedrals ...
  scanning impropers ...
  reading bonds ...
  1882 bonds
  reading angles ...
  3906 angles
  reading dihedrals ...
  7188 dihedrals
  reading impropers ...
  126 impropers
################################################################################

min_style cg
minimize 1e-06 1e-06 1000000 10000000
PPPM initialization ...
  G vector (1/distance) = 0.145998
  grid = 54 54 54
  stencil order = 5
  estimated absolute RMS force accuracy = 0.00073822
  estimated relative force accuracy = 2.22313e-06
  3d grid and FFT values/proc = 205379 157464
  update every 1 steps, delay 0 steps, check yes
Step Temp E_pair E_mol TotEng Press
0    556.33595    3471.7731    13732.507    19892.435    14.010223
Loop time of 224.182 on 1 procs for 2085 steps with 1622 atoms

Minimization stats:
  Stopping criterion = energy tolerance
  Energy initial, next-to-last, final =
  Force two-norm initial, final = 28156.4 13.4165
  Force max component initial, final = 17334.4 6.61555
  Final line search alpha, max atom move = 0.00936725 0.0619695
  Iterations, force evaluations = 2085 4166

write_dump all custom pysimm.dump.tmp id q x y z vx vy vz
quit

################################################################################
##################################    Init    ##################################
################################################################################
units           real
atom_style      full
pair_style      lj/cut/coul/long 12.0  12.0
kspace_style    pppm 1e-4
bond_style      harmonic
angle_style     harmonic
dihedral_style  fourier
improper_style  cvff
special_bonds   amber
pair_modify     mix arithmetic
read_data       temp.lmps
  orthogonal box = (-165.17 -165.17 -165.17) to (165.17 165.17 165.17)
  reading atoms ...
  1700 atoms
  reading velocities ...
  1700 velocities
  scanning bonds ...
  scanning angles ...
  scanning dihedrals ...
  scanning impropers ...
  reading bonds ...
  1972 bonds
  reading angles ...
  4092 angles
  reading dihedrals ...
  7528 dihedrals
  reading impropers ...
  132 impropers
################################################################################

min_style cg
minimize 1e-06 1e-06 1000000 10000000
PPPM initialization ...
  G vector (1/distance) = 0.1447
  grid = 54 54 54
  stencil order = 5
  estimated absolute RMS force accuracy = 0.000778748
  estimated relative force accuracy = 2.34518e-06
  3d grid and FFT values/proc = 205379 157464
  update every 1 steps, delay 0 steps, check yes
Step Temp E_pair E_mol TotEng Press
0    685.01434    3841.7547     14374.92    21685.858    14.603603
Loop time of 37.2883 on 1 procs for 354 steps with 1700 atoms

Minimization stats:
  Stopping criterion = energy tolerance
  Energy initial, next-to-last, final =
  Force two-norm initial, final = 39957.4 11.5757
  Force max component initial, final = 26789.8 5.23017
  Final line search alpha, max atom move = 0.0713574 0.373211
  Iterations, force evaluations = 354 701

write_dump all custom pysimm.dump.tmp id q x y z vx vy vz
quit

################################################################################
##################################    Init    ##################################
################################################################################
units           real
atom_style      full
pair_style      lj/cut/coul/long 12.0  12.0
kspace_style    pppm 1e-4
bond_style      harmonic
angle_style     harmonic
dihedral_style  fourier
improper_style  cvff
special_bonds   amber
pair_modify     mix arithmetic
read_data       temp.lmps
  orthogonal box = (-167.751 -167.751 -167.751) to (167.751 167.751 167.751)
  reading atoms ...
  1778 atoms
  reading velocities ...
  1778 velocities
  scanning bonds ...
  scanning angles ...
  scanning dihedrals ...
  scanning impropers ...
  reading bonds ...
  2062 bonds
  reading angles ...
  4278 angles
  reading dihedrals ...
  7868 dihedrals
  reading impropers ...
  138 impropers
################################################################################

min_style cg
minimize 1e-06 1e-06 1000000 10000000
PPPM initialization ...
  G vector (1/distance) = 0.143469
  grid = 54 54 54
  stencil order = 5
  estimated absolute RMS force accuracy = 0.00081915
  estimated relative force accuracy = 2.46685e-06
  3d grid and FFT values/proc = 205379 157464
  update every 1 steps, delay 0 steps, check yes
Step Temp E_pair E_mol TotEng Press
0    730.13044     7321.315    14947.252    26135.994    39.912645
Loop time of 35.2698 on 1 procs for 322 steps with 1778 atoms

Minimization stats:
  Stopping criterion = energy tolerance
  Energy initial, next-to-last, final =
  Force two-norm initial, final = 87906.5 7.08957
  Force max component initial, final = 47594.6 2.42403
  Final line search alpha, max atom move = 0.0386976 0.0938041
  Iterations, force evaluations = 322 639

write_dump all custom pysimm.dump.tmp id q x y z vx vy vz
quit

################################################################################
##################################    Init    ##################################
################################################################################
units           real
atom_style      full
pair_style      lj/cut/coul/long 12.0  12.0
kspace_style    pppm 1e-4
bond_style      harmonic
angle_style     harmonic
dihedral_style  fourier
improper_style  cvff
special_bonds   amber
pair_modify     mix arithmetic
read_data       temp.lmps
  orthogonal box = (-170.255 -170.255 -170.255) to (170.255 170.255 170.255)
  reading atoms ...
  1856 atoms
  reading velocities ...
  1856 velocities
  scanning bonds ...
  scanning angles ...
  scanning dihedrals ...
  scanning impropers ...
  reading bonds ...
  2152 bonds
  reading angles ...
  4464 angles
  reading dihedrals ...
  8208 dihedrals
  reading impropers ...
  144 impropers
################################################################################

min_style cg
minimize 1e-06 1e-06 1000000 10000000
PPPM initialization ...
  G vector (1/distance) = 0.142303
  grid = 54 54 54
  stencil order = 5
  estimated absolute RMS force accuracy = 0.000859441
  estimated relative force accuracy = 2.58818e-06
  3d grid and FFT values/proc = 205379 157464
  update every 1 steps, delay 0 steps, check yes
Step Temp E_pair E_mol TotEng Press
0    632.63034    1267.2656    15476.771    20242.104   -4.3929645
Loop time of 37.7257 on 1 procs for 342 steps with 1856 atoms

Minimization stats:
  Stopping criterion = energy tolerance
  Energy initial, next-to-last, final =
  Force two-norm initial, final = 2569.3 14.863
  Force max component initial, final = 507.54 4.62113
  Final line search alpha, max atom move = 0.0346151 0.159961
  Iterations, force evaluations = 342 680

write_dump all custom pysimm.dump.tmp id q x y z vx vy vz
quit

################################################################################
##################################    Init    ##################################
################################################################################
units           real
atom_style      full
pair_style      lj/cut/coul/long 12.0  12.0
kspace_style    pppm 1e-4
bond_style      harmonic
angle_style     harmonic
dihedral_style  fourier
improper_style  cvff
special_bonds   amber
pair_modify     mix arithmetic
read_data       temp.lmps
  orthogonal box = (-172.688 -172.688 -172.688) to (172.688 172.688 172.688)
  reading atoms ...
  1934 atoms
  reading velocities ...
  1934 velocities
  scanning bonds ...
  scanning angles ...
  scanning dihedrals ...
  scanning impropers ...
  reading bonds ...
  2242 bonds
  reading angles ...
  4650 angles
  reading dihedrals ...
  8548 dihedrals
  reading impropers ...
  150 impropers
################################################################################

min_style cg
minimize 1e-06 1e-06 1000000 10000000
PPPM initialization ...
  G vector (1/distance) = 0.141197
  grid = 54 54 54
  stencil order = 5
  estimated absolute RMS force accuracy = 0.000899646
  estimated relative force accuracy = 2.70926e-06
  3d grid and FFT values/proc = 205379 157464
  update every 1 steps, delay 0 steps, check yes
Step Temp E_pair E_mol TotEng Press
0     600.5289     10006.33    15962.376    29428.897    54.077117
Loop time of 40.5856 on 1 procs for 368 steps with 1934 atoms

Minimization stats:
  Stopping criterion = energy tolerance
  Energy initial, next-to-last, final =
  Force two-norm initial, final = 76501.1 7.12303
  Force max component initial, final = 42896.7 1.023
  Final line search alpha, max atom move = 0.0326429 0.0333937
  Iterations, force evaluations = 368 730

write_dump all custom pysimm.dump.tmp id q x y z vx vy vz
quit

################################################################################
##################################    Init    ##################################
################################################################################
units           real
atom_style      full
pair_style      lj/cut/coul/long 12.0  12.0
kspace_style    pppm 1e-4
bond_style      harmonic
angle_style     harmonic
dihedral_style  fourier
improper_style  cvff
special_bonds   amber
pair_modify     mix arithmetic
read_data       temp.lmps
  orthogonal box = (-175.053 -175.053 -175.053) to (175.053 175.053 175.053)
  reading atoms ...
  2012 atoms
  reading velocities ...
  2012 velocities
  scanning bonds ...
  scanning angles ...
  scanning dihedrals ...
  scanning impropers ...
  reading bonds ...
  2332 bonds
  reading angles ...
  4836 angles
  reading dihedrals ...
  8888 dihedrals
  reading impropers ...
  156 impropers
################################################################################

min_style cg
minimize 1e-06 1e-06 1000000 10000000
PPPM initialization ...
  G vector (1/distance) = 0.148484
  grid = 60 60 60
  stencil order = 5
  estimated absolute RMS force accuracy = 0.000660331
  estimated relative force accuracy = 1.98857e-06
  3d grid and FFT values/proc = 274625 216000
  update every 1 steps, delay 0 steps, check yes
Step Temp E_pair E_mol TotEng Press
0    566.48887    1983.4125    16403.423    21782.601  -0.79554012
Loop time of 140.552 on 1 procs for 984 steps with 2012 atoms

Minimization stats:
  Stopping criterion = energy tolerance
  Energy initial, next-to-last, final =
  Force two-norm initial, final = 4469.63 15.8917
  Force max component initial, final = 1192.36 4.93299
  Final line search alpha, max atom move = 0.0124151 0.0612433
  Iterations, force evaluations = 984 1962

write_dump all custom pysimm.dump.tmp id q x y z vx vy vz
quit

################################################################################
##################################    Init    ##################################
################################################################################
units           real
atom_style      full
pair_style      lj/cut/coul/long 12.0  12.0
kspace_style    pppm 1e-4
bond_style      harmonic
angle_style     harmonic
dihedral_style  fourier
improper_style  cvff
special_bonds   amber
pair_modify     mix arithmetic
read_data       temp.lmps
  orthogonal box = (-177.357 -177.357 -177.357) to (177.357 177.357 177.357)
  reading atoms ...
  2090 atoms
  reading velocities ...
  2090 velocities
  scanning bonds ...
  scanning angles ...
  scanning dihedrals ...
  scanning impropers ...
  reading bonds ...
  2422 bonds
  reading angles ...
  5022 angles
  reading dihedrals ...
  9228 dihedrals
  reading impropers ...
  162 impropers
################################################################################

min_style cg
minimize 1e-06 1e-06 1000000 10000000
PPPM initialization ...
  G vector (1/distance) = 0.147433
  grid = 60 60 60
  stencil order = 5
  estimated absolute RMS force accuracy = 0.000690015
  estimated relative force accuracy = 2.07796e-06
  3d grid and FFT values/proc = 274625 216000
  update every 1 steps, delay 0 steps, check yes
Step Temp E_pair E_mol TotEng Press
0    584.75545    14080.736    16932.595    34654.552    74.107499
Loop time of 45.4219 on 1 procs for 311 steps with 2090 atoms

Minimization stats:
  Stopping criterion = energy tolerance
  Energy initial, next-to-last, final =
  Force two-norm initial, final = 157761 13.0294
  Force max component initial, final = 83263 3.61704
  Final line search alpha, max atom move = 0.0369933 0.133806
  Iterations, force evaluations = 311 615

write_dump all custom pysimm.dump.tmp id q x y z vx vy vz
quit

################################################################################
##################################    Init    ##################################
################################################################################
units           real
atom_style      full
pair_style      lj/cut/coul/long 12.0  12.0
kspace_style    pppm 1e-4
bond_style      harmonic
angle_style     harmonic
dihedral_style  fourier
improper_style  cvff
special_bonds   amber
pair_modify     mix arithmetic
read_data       temp.lmps
  orthogonal box = (-179.602 -179.602 -179.602) to (179.602 179.602 179.602)
  reading atoms ...
  2168 atoms
  reading velocities ...
  2168 velocities
  scanning bonds ...
  scanning angles ...
  scanning dihedrals ...
  scanning impropers ...
  reading bonds ...
  2512 bonds
  reading angles ...
  5208 angles
  reading dihedrals ...
  9568 dihedrals
  reading impropers ...
  168 impropers
################################################################################

min_style cg
minimize 1e-06 1e-06 1000000 10000000
PPPM initialization ...
  G vector (1/distance) = 0.146424
  grid = 60 60 60
  stencil order = 5
  estimated absolute RMS force accuracy = 0.000719637
  estimated relative force accuracy = 2.16717e-06
  3d grid and FFT values/proc = 274625 216000
  update every 1 steps, delay 0 steps, check yes
Step Temp E_pair E_mol TotEng Press
0     512.0997    3382.2522    17743.842    24433.959    5.8189215
Loop time of 79.4137 on 1 procs for 543 steps with 2168 atoms

Minimization stats:
  Stopping criterion = energy tolerance
  Energy initial, next-to-last, final =
  Force two-norm initial, final = 15931.1 6.6904
  Force max component initial, final = 6692.11 2.45408
  Final line search alpha, max atom move = 0.04616 0.11328
  Iterations, force evaluations = 543 1080

write_dump all custom pysimm.dump.tmp id q x y z vx vy vz
quit

################################################################################
##################################    Init    ##################################
################################################################################
units           real
atom_style      full
pair_style      lj/cut/coul/long 12.0  12.0
kspace_style    pppm 1e-4
bond_style      harmonic
angle_style     harmonic
dihedral_style  fourier
improper_style  cvff
special_bonds   amber
pair_modify     mix arithmetic
read_data       temp.lmps
  orthogonal box = (-181.793 -181.793 -181.793) to (181.793 181.793 181.793)
  reading atoms ...
  2246 atoms
  reading velocities ...
  2246 velocities
  scanning bonds ...
  scanning angles ...
  scanning dihedrals ...
  scanning impropers ...
  reading bonds ...
  2602 bonds
  reading angles ...
  5394 angles
  reading dihedrals ...
  9908 dihedrals
  reading impropers ...
  174 impropers
################################################################################

min_style cg
minimize 1e-06 1e-06 1000000 10000000
PPPM initialization ...
  G vector (1/distance) = 0.145455
  grid = 60 60 60
  stencil order = 5
  estimated absolute RMS force accuracy = 0.000749193
  estimated relative force accuracy = 2.25617e-06
  3d grid and FFT values/proc = 274625 216000
  update every 1 steps, delay 0 steps, check yes
Step Temp E_pair E_mol TotEng Press
0    434.51125    9272.0995    17899.769    30079.582    39.916352
Loop time of 65.4664 on 1 procs for 461 steps with 2246 atoms

Minimization stats:
  Stopping criterion = energy tolerance
  Energy initial, next-to-last, final =
  Force two-norm initial, final = 91226.5 6.69983
  Force max component initial, final = 46422 1.7302
  Final line search alpha, max atom move = 0.028552 0.0494006
  Iterations, force evaluations = 461 917

write_dump all custom pysimm.dump.tmp id q x y z vx vy vz
quit

################################################################################
##################################    Init    ##################################
################################################################################
units           real
atom_style      full
pair_style      lj/cut/coul/long 12.0  12.0
kspace_style    pppm 1e-4
bond_style      harmonic
angle_style     harmonic
dihedral_style  fourier
improper_style  cvff
special_bonds   amber
pair_modify     mix arithmetic
read_data       temp.lmps
  orthogonal box = (-183.932 -183.932 -183.932) to (183.932 183.932 183.932)
  reading atoms ...
  2324 atoms
  reading velocities ...
  2324 velocities
  scanning bonds ...
  scanning angles ...
  scanning dihedrals ...
  scanning impropers ...
  reading bonds ...
  2692 bonds
  reading angles ...
  5580 angles
  reading dihedrals ...
  10248 dihedrals
  reading impropers ...
  180 impropers
################################################################################

min_style cg
minimize 1e-06 1e-06 1000000 10000000
PPPM initialization ...
  G vector (1/distance) = 0.144522
  grid = 60 60 60
  stencil order = 5
  estimated absolute RMS force accuracy = 0.000778683
  estimated relative force accuracy = 2.34498e-06
  3d grid and FFT values/proc = 274625 216000
  update every 1 steps, delay 0 steps, check yes
Step Temp E_pair E_mol TotEng Press
0    376.33721    32051.493    18435.586    53092.997    163.11068
Loop time of 77.9291 on 1 procs for 535 steps with 2324 atoms

Minimization stats:
  Stopping criterion = energy tolerance
  Energy initial, next-to-last, final =
  Force two-norm initial, final = 309190 7.00373
  Force max component initial, final = 180891 1.70834
  Final line search alpha, max atom move = 0.0367504 0.0627822
  Iterations, force evaluations = 535 1058

write_dump all custom pysimm.dump.tmp id q x y z vx vy vz
quit

################################################################################
##################################    Init    ##################################
################################################################################
units           real
atom_style      full
pair_style      lj/cut/coul/long 12.0  12.0
kspace_style    pppm 1e-4
bond_style      harmonic
angle_style     harmonic
dihedral_style  fourier
improper_style  cvff
special_bonds   amber
pair_modify     mix arithmetic
read_data       temp.lmps
  orthogonal box = (-186.022 -186.022 -186.022) to (186.022 186.022 186.022)
  reading atoms ...
  2402 atoms
  reading velocities ...
  2402 velocities
  scanning bonds ...
  scanning angles ...
  scanning dihedrals ...
  scanning impropers ...
  reading bonds ...
  2782 bonds
  reading angles ...
  5766 angles
  reading dihedrals ...
  10588 dihedrals
  reading impropers ...
  186 impropers
################################################################################

min_style cg
minimize 1e-06 1e-06 1000000 10000000
PPPM initialization ...
  G vector (1/distance) = 0.143626
  grid = 60 60 60
  stencil order = 5
  estimated absolute RMS force accuracy = 0.000808109
  estimated relative force accuracy = 2.4336e-06
  3d grid and FFT values/proc = 274625 216000
  update every 1 steps, delay 0 steps, check yes
Step Temp E_pair E_mol TotEng Press
0    366.41039     18752.94    18889.059    40264.371     86.72122
Loop time of 50.4115 on 1 procs for 345 steps with 2402 atoms

Minimization stats:
  Stopping criterion = energy tolerance
  Energy initial, next-to-last, final =
  Force two-norm initial, final = 162015 14.1032
  Force max component initial, final = 63102.8 3.78401
  Final line search alpha, max atom move = 0.024255 0.091781
  Iterations, force evaluations = 345 684

write_dump all custom pysimm.dump.tmp id q x y z vx vy vz
quit

################################################################################
##################################    Init    ##################################
################################################################################
units           real
atom_style      full
pair_style      lj/cut/coul/long 12.0  12.0
kspace_style    pppm 1e-4
bond_style      harmonic
angle_style     harmonic
dihedral_style  fourier
improper_style  cvff
special_bonds   amber
pair_modify     mix arithmetic
read_data       temp.lmps
  orthogonal box = (-188.066 -188.066 -188.066) to (188.066 188.066 188.066)
  reading atoms ...
  2480 atoms
  reading velocities ...
  2480 velocities
  scanning bonds ...
  scanning angles ...
  scanning dihedrals ...
  scanning impropers ...
  reading bonds ...
  2872 bonds
  reading angles ...
  5952 angles
  reading dihedrals ...
  10928 dihedrals
  reading impropers ...
  192 impropers
################################################################################

min_style cg
minimize 1e-06 1e-06 1000000 10000000
PPPM initialization ...
  G vector (1/distance) = 0.142763
  grid = 60 60 60
  stencil order = 5
  estimated absolute RMS force accuracy = 0.000837477
  estimated relative force accuracy = 2.52204e-06
  3d grid and FFT values/proc = 274625 216000
  update every 1 steps, delay 0 steps, check yes
Step Temp E_pair E_mol TotEng Press
0    308.37958    12371.173    19215.572    33865.494    50.621749
Loop time of 40.363 on 1 procs for 271 steps with 2480 atoms

Minimization stats:
  Stopping criterion = energy tolerance
  Energy initial, next-to-last, final =
  Force two-norm initial, final = 117044 12.3186
  Force max component initial, final = 73468.5 4.35835
  Final line search alpha, max atom move = 0.04767 0.207763
  Iterations, force evaluations = 271 536

write_dump all custom pysimm.dump.tmp id q x y z vx vy vz
quit

################################################################################
##################################    Init    ##################################
################################################################################
units           real
atom_style      full
pair_style      lj/cut/coul/long 12.0  12.0
kspace_style    pppm 1e-4
bond_style      harmonic
angle_style     harmonic
dihedral_style  fourier
improper_style  cvff
special_bonds   amber
pair_modify     mix arithmetic
read_data       temp.lmps
  orthogonal box = (-190.067 -190.067 -190.067) to (190.067 190.067 190.067)
  reading atoms ...
  2558 atoms
  reading velocities ...
  2558 velocities
  scanning bonds ...
  scanning angles ...
  scanning dihedrals ...
  scanning impropers ...
  reading bonds ...
  2962 bonds
  reading angles ...
  6138 angles
  reading dihedrals ...
  11268 dihedrals
  reading impropers ...
  198 impropers
################################################################################

min_style cg
minimize 1e-06 1e-06 1000000 10000000
PPPM initialization ...
  G vector (1/distance) = 0.141934
  grid = 60 60 60
  stencil order = 5
  estimated absolute RMS force accuracy = 0.000866795
  estimated relative force accuracy = 2.61033e-06
  3d grid and FFT values/proc = 274625 216000
  update every 1 steps, delay 0 steps, check yes
Step Temp E_pair E_mol TotEng Press
0    285.88571    2692.6964    19774.516    24646.214  -0.13775922
Loop time of 69.3056 on 1 procs for 482 steps with 2558 atoms

Minimization stats:
  Stopping criterion = energy tolerance
  Energy initial, next-to-last, final =
  Force two-norm initial, final = 8815.36 14.1212
  Force max component initial, final = 4640.34 4.34279
  Final line search alpha, max atom move = 0.0223551 0.0970836
  Iterations, force evaluations = 482 957

write_dump all custom pysimm.dump.tmp id q x y z vx vy vz
quit

################################################################################
##################################    Init    ##################################
################################################################################
units           real
atom_style      full
pair_style      lj/cut/coul/long 12.0  12.0
kspace_style    pppm 1e-4
bond_style      harmonic
angle_style     harmonic
dihedral_style  fourier
improper_style  cvff
special_bonds   amber
pair_modify     mix arithmetic
read_data       temp.lmps
  orthogonal box = (-192.027 -192.027 -192.027) to (192.027 192.027 192.027)
  reading atoms ...
  2636 atoms
  reading velocities ...
  2636 velocities
  scanning bonds ...
  scanning angles ...
  scanning dihedrals ...
  scanning impropers ...
  reading bonds ...
  3052 bonds
  reading angles ...
  6324 angles
  reading dihedrals ...
  11608 dihedrals
  reading impropers ...
  204 impropers
################################################################################

min_style cg
minimize 1e-06 1e-06 1000000 10000000
PPPM initialization ...
  G vector (1/distance) = 0.141136
  grid = 60 60 60
  stencil order = 5
  estimated absolute RMS force accuracy = 0.000896073
  estimated relative force accuracy = 2.6985e-06
  3d grid and FFT values/proc = 274625 216000
  update every 1 steps, delay 0 steps, check yes
Step Temp E_pair E_mol TotEng Press
0     315.3156    3314.5508    20459.671    26250.847    2.1952511
Loop time of 41.7311 on 1 procs for 295 steps with 2636 atoms

Minimization stats:
  Stopping criterion = energy tolerance
  Energy initial, next-to-last, final =
  Force two-norm initial, final = 16901.8 13.806
  Force max component initial, final = 9260.09 2.08437
  Final line search alpha, max atom move = 0.0265441 0.0553277
  Iterations, force evaluations = 295 585

write_dump all custom pysimm.dump.tmp id q x y z vx vy vz
quit

################################################################################
##################################    Init    ##################################
################################################################################
units           real
atom_style      full
pair_style      lj/cut/coul/long 12.0  12.0
kspace_style    pppm 1e-4
bond_style      harmonic
angle_style     harmonic
dihedral_style  fourier
improper_style  cvff
special_bonds   amber
pair_modify     mix arithmetic
read_data       temp.lmps
  orthogonal box = (-193.947 -193.947 -193.947) to (193.947 193.947 193.947)
  reading atoms ...
  2714 atoms
  reading velocities ...
  2714 velocities
  scanning bonds ...
  scanning angles ...
  scanning dihedrals ...
  scanning impropers ...
  reading bonds ...
  3142 bonds
  reading angles ...
  6510 angles
  reading dihedrals ...
  11948 dihedrals
  reading impropers ...
  210 impropers
################################################################################

min_style cg
minimize 1e-06 1e-06 1000000 10000000
PPPM initialization ...
  G vector (1/distance) = 0.14544
  grid = 64 64 64
  stencil order = 5
  estimated absolute RMS force accuracy = 0.000746908
  estimated relative force accuracy = 2.24929e-06
  3d grid and FFT values/proc = 328509 262144
  update every 1 steps, delay 0 steps, check yes
Step Temp E_pair E_mol TotEng Press
0     329.6803    4954.7228    21182.906    28803.732     9.341125
Loop time of 50.1007 on 1 procs for 302 steps with 2714 atoms

Minimization stats:
  Stopping criterion = energy tolerance
  Energy initial, next-to-last, final =
  Force two-norm initial, final = 29920.8 11.7838
  Force max component initial, final = 13703.3 4.75772
  Final line search alpha, max atom move = 0.0357421 0.170051
  Iterations, force evaluations = 302 600

write_dump all custom pysimm.dump.tmp id q x y z vx vy vz
quit

################################################################################
##################################    Init    ##################################
################################################################################
units           real
atom_style      full
pair_style      lj/cut/coul/long 12.0  12.0
kspace_style    pppm 1e-4
bond_style      harmonic
angle_style     harmonic
dihedral_style  fourier
improper_style  cvff
special_bonds   amber
pair_modify     mix arithmetic
read_data       temp.lmps
  orthogonal box = (-195.83 -195.83 -195.83) to (195.83 195.83 195.83)
  reading atoms ...
  2792 atoms
  reading velocities ...
  2792 velocities
  scanning bonds ...
  scanning angles ...
  scanning dihedrals ...
  scanning impropers ...
  reading bonds ...
  3232 bonds
  reading angles ...
  6696 angles
  reading dihedrals ...
  12288 dihedrals
  reading impropers ...
  216 impropers
################################################################################

min_style cg
minimize 1e-06 1e-06 1000000 10000000
PPPM initialization ...
  G vector (1/distance) = 0.14467
  grid = 64 64 64
  stencil order = 5
  estimated absolute RMS force accuracy = 0.0007712
  estimated relative force accuracy = 2.32245e-06
  3d grid and FFT values/proc = 328509 262144
  update every 1 steps, delay 0 steps, check yes
Step Temp E_pair E_mol TotEng Press
0    306.95391    4106.5094    21563.787    28223.981    4.6550787
Loop time of 48.346 on 1 procs for 283 steps with 2792 atoms

Minimization stats:
  Stopping criterion = energy tolerance
  Energy initial, next-to-last, final =
  Force two-norm initial, final = 15848.2 14.9868
  Force max component initial, final = 6605.35 3.56406
  Final line search alpha, max atom move = 0.0349897 0.124705
  Iterations, force evaluations = 283 560

write_dump all custom pysimm.dump.tmp id q x y z vx vy vz
quit

################################################################################
##################################    Init    ##################################
################################################################################
units           real
atom_style      full
pair_style      lj/cut/coul/long 12.0  12.0
kspace_style    pppm 1e-4
bond_style      harmonic
angle_style     harmonic
dihedral_style  fourier
improper_style  cvff
special_bonds   amber
pair_modify     mix arithmetic
read_data       temp.lmps
  orthogonal box = (-197.678 -197.678 -197.678) to (197.678 197.678 197.678)
  reading atoms ...
  2870 atoms
  reading velocities ...
  2870 velocities
  scanning bonds ...
  scanning angles ...
  scanning dihedrals ...
  scanning impropers ...
  reading bonds ...
  3322 bonds
  reading angles ...
  6882 angles
  reading dihedrals ...
  12628 dihedrals
  reading impropers ...
  222 impropers
################################################################################

min_style cg
minimize 1e-06 1e-06 1000000 10000000
PPPM initialization ...
  G vector (1/distance) = 0.143924
  grid = 64 64 64
  stencil order = 5
  estimated absolute RMS force accuracy = 0.000795449
  estimated relative force accuracy = 2.39547e-06
  3d grid and FFT values/proc = 328509 262144
  update every 1 steps, delay 0 steps, check yes
Step Temp E_pair E_mol TotEng Press
0    295.67979    8941.5623    22059.301      33529.5    26.267967
Loop time of 146.04 on 1 procs for 834 steps with 2870 atoms

Minimization stats:
  Stopping criterion = energy tolerance
  Energy initial, next-to-last, final =
  Force two-norm initial, final = 55246.2 15.2575
  Force max component initial, final = 25804.6 8.37981
  Final line search alpha, max atom move = 0.0118491 0.0992932
  Iterations, force evaluations = 834 1661

write_dump all custom pysimm.dump.tmp id q x y z vx vy vz
quit

################################################################################
##################################    Init    ##################################
################################################################################
units           real
atom_style      full
pair_style      lj/cut/coul/long 12.0  12.0
kspace_style    pppm 1e-4
bond_style      harmonic
angle_style     harmonic
dihedral_style  fourier
improper_style  cvff
special_bonds   amber
pair_modify     mix arithmetic
read_data       temp.lmps
  orthogonal box = (-199.492 -199.492 -199.492) to (199.492 199.492 199.492)
  reading atoms ...
  2948 atoms
  reading velocities ...
  2948 velocities
  scanning bonds ...
  scanning angles ...
  scanning dihedrals ...
  scanning impropers ...
  reading bonds ...
  3412 bonds
  reading angles ...
  7068 angles
  reading dihedrals ...
  12968 dihedrals
  reading impropers ...
  228 impropers
################################################################################

min_style cg
minimize 1e-06 1e-06 1000000 10000000
PPPM initialization ...
  G vector (1/distance) = 0.143201
  grid = 64 64 64
  stencil order = 5
  estimated absolute RMS force accuracy = 0.000819658
  estimated relative force accuracy = 2.46837e-06
  3d grid and FFT values/proc = 328509 262144
  update every 1 steps, delay 0 steps, check yes
Step Temp E_pair E_mol TotEng Press
0    280.47456    9361.1615    22497.579    34322.554    26.765325
Loop time of 74.2011 on 1 procs for 450 steps with 2948 atoms

Minimization stats:
  Stopping criterion = energy tolerance
  Energy initial, next-to-last, final =
  Force two-norm initial, final = 64248.7 11.5246
  Force max component initial, final = 26891.1 2.90799
  Final line search alpha, max atom move = 0.0377041 0.109643
  Iterations, force evaluations = 450 894

write_dump all custom pysimm.dump.tmp id q x y z vx vy vz
quit

################################################################################
##################################    Init    ##################################
################################################################################
units           real
atom_style      full
pair_style      lj/cut/coul/long 12.0  12.0
kspace_style    pppm 1e-4
bond_style      harmonic
angle_style     harmonic
dihedral_style  fourier
improper_style  cvff
special_bonds   amber
pair_modify     mix arithmetic
read_data       temp.lmps
  orthogonal box = (-201.273 -201.273 -201.273) to (201.273 201.273 201.273)
  reading atoms ...
  3026 atoms
  reading velocities ...
  3026 velocities
  scanning bonds ...
  scanning angles ...
  scanning dihedrals ...
  scanning impropers ...
  reading bonds ...
  3502 bonds
  reading angles ...
  7254 angles
  reading dihedrals ...
  13308 dihedrals
  reading impropers ...
  234 impropers
################################################################################

min_style cg
minimize 1e-06 1e-06 1000000 10000000
PPPM initialization ...
  G vector (1/distance) = 0.142502
  grid = 64 64 64
  stencil order = 5
  estimated absolute RMS force accuracy = 0.000843829
  estimated relative force accuracy = 2.54117e-06
  3d grid and FFT values/proc = 328509 262144
  update every 1 steps, delay 0 steps, check yes
Loop time of 63.2077 on 1 procs for 376 steps with 3026 atoms

Minimization stats:
  Stopping criterion = energy tolerance
  Energy initial, next-to-last, final =
  Force two-norm initial, final = 156765 18.9334
  Force max component initial, final = 80512.9 5.42517
  Final line search alpha, max atom move = 0.0300124 0.162822
  Iterations, force evaluations = 376 746

write_dump all custom pysimm.dump.tmp id q x y z vx vy vz
quit

################################################################################
##################################    Init    ##################################
################################################################################
units           real
atom_style      full
pair_style      lj/cut/coul/long 12.0  12.0
kspace_style    pppm 1e-4
bond_style      harmonic
angle_style     harmonic
dihedral_style  fourier
improper_style  cvff
special_bonds   amber
pair_modify     mix arithmetic
read_data       temp.lmps
  orthogonal box = (-203.023 -203.023 -203.023) to (203.023 203.023 203.023)
  reading atoms ...
  3104 atoms
  reading velocities ...
  3104 velocities
  scanning bonds ...
  scanning angles ...
  scanning dihedrals ...
  scanning impropers ...
  reading bonds ...
  3592 bonds
  reading angles ...
  7440 angles
  reading dihedrals ...
  13648 dihedrals
  reading impropers ...
  240 impropers
################################################################################

min_style cg
minimize 1e-06 1e-06 1000000 10000000
PPPM initialization ...
  G vector (1/distance) = 0.141824
  grid = 64 64 64
  stencil order = 5
  estimated absolute RMS force accuracy = 0.00086797
  estimated relative force accuracy = 2.61386e-06
  3d grid and FFT values/proc = 328509 262144
  update every 1 steps, delay 0 steps, check yes
Loop time of 59.1946 on 1 procs for 352 steps with 3104 atoms

Minimization stats:
  Stopping criterion = energy tolerance
  Energy initial, next-to-last, final =
  Force two-norm initial, final = 134586 12.1807
  Force max component initial, final = 56182 2.72151
  Final line search alpha, max atom move = 0.0304731 0.0829329
  Iterations, force evaluations = 352 696

write_dump all custom pysimm.dump.tmp id q x y z vx vy vz
quit

################################################################################
##################################    Init    ##################################
################################################################################
units           real
atom_style      full
pair_style      lj/cut/coul/long 12.0  12.0
kspace_style    pppm 1e-4
bond_style      harmonic
angle_style     harmonic
dihedral_style  fourier
improper_style  cvff
special_bonds   amber
pair_modify     mix arithmetic
read_data       temp.lmps
  orthogonal box = (-204.744 -204.744 -204.744) to (204.744 204.744 204.744)
  reading atoms ...
  3182 atoms
  reading velocities ...
  3182 velocities
  scanning bonds ...
  scanning angles ...
  scanning dihedrals ...
  scanning impropers ...
  reading bonds ...
  3682 bonds
  reading angles ...
  7626 angles
  reading dihedrals ...
  13988 dihedrals
  reading impropers ...
  246 impropers
################################################################################

min_style cg
minimize 1e-06 1e-06 1000000 10000000
PPPM initialization ...
  G vector (1/distance) = 0.141168
  grid = 64 64 64
  stencil order = 5
  estimated absolute RMS force accuracy = 0.000892085
  estimated relative force accuracy = 2.68649e-06
  3d grid and FFT values/proc = 328509 262144
  update every 1 steps, delay 0 steps, check yes
Loop time of 45.0814 on 1 procs for 270 steps with 3182 atoms

Minimization stats:
  Stopping criterion = energy tolerance
  Energy initial, next-to-last, final =
  Force two-norm initial, final = 111202 16.3289
  Force max component initial, final = 56944.1 3.34156
  Final line search alpha, max atom move = 0.0277731 0.0928055
  Iterations, force evaluations = 270 534

write_dump all custom pysimm.dump.tmp id q x y z vx vy vz
quit

################################################################################
##################################    Init    ##################################
################################################################################
units           real
atom_style      full
pair_style      lj/cut/coul/long 12.0  12.0
kspace_style    pppm 1e-4
bond_style      harmonic
angle_style     harmonic
dihedral_style  fourier
improper_style  cvff
special_bonds   amber
pair_modify     mix arithmetic
read_data       temp.lmps
  orthogonal box = (-206.436 -206.436 -206.436) to (206.436 206.436 206.436)
  reading atoms ...
  3260 atoms
  reading velocities ...
  3260 velocities
  scanning bonds ...
  scanning angles ...
  scanning dihedrals ...
  scanning impropers ...
  reading bonds ...
  3772 bonds
  reading angles ...
  7812 angles
  reading dihedrals ...
  14328 dihedrals
  reading impropers ...
  252 impropers
################################################################################

min_style cg
minimize 1e-06 1e-06 1000000 10000000
PPPM initialization ...
  G vector (1/distance) = 0.149886
  grid = 72 72 72
  stencil order = 5
  estimated absolute RMS force accuracy = 0.000616075
  estimated relative force accuracy = 1.85529e-06
  3d grid and FFT values/proc = 456533 373248
  update every 1 steps, delay 0 steps, check yes
Loop time of 155.675 on 1 procs for 580 steps with 3260 atoms

Minimization stats:
  Stopping criterion = energy tolerance
  Energy initial, next-to-last, final =
  Force two-norm initial, final = 175701 6.60553
  Force max component initial, final = 110235 1.87471
  Final line search alpha, max atom move = 0.0598246 0.112154
  Iterations, force evaluations = 580 1153

write_dump all custom pysimm.dump.tmp id q x y z vx vy vz
quit

################################################################################
##################################    Init    ##################################
################################################################################
units           real
atom_style      full
pair_style      lj/cut/coul/long 12.0  12.0
kspace_style    pppm 1e-4
bond_style      harmonic
angle_style     harmonic
dihedral_style  fourier
improper_style  cvff
special_bonds   amber
pair_modify     mix arithmetic
read_data       temp.lmps
  orthogonal box = (-208.101 -208.101 -208.101) to (208.101 208.101 208.101)
  reading atoms ...
  3338 atoms
  reading velocities ...
  3338 velocities
  scanning bonds ...
  scanning angles ...
  scanning dihedrals ...
  scanning impropers ...
  reading bonds ...
  3862 bonds
  reading angles ...
  7998 angles
  reading dihedrals ...
  14668 dihedrals
  reading impropers ...
  258 impropers
################################################################################

min_style cg
minimize 1e-06 1e-06 1000000 10000000
PPPM initialization ...
  G vector (1/distance) = 0.149239
  grid = 72 72 72
  stencil order = 5
  estimated absolute RMS force accuracy = 0.000633273
  estimated relative force accuracy = 1.90708e-06
  3d grid and FFT values/proc = 456533 373248
  update every 1 steps, delay 0 steps, check yes
Loop time of 258.356 on 1 procs for 974 steps with 3338 atoms

Minimization stats:
  Stopping criterion = energy tolerance
  Energy initial, next-to-last, final =
  Force two-norm initial, final = 68186.6 17.366
  Force max component initial, final = 31617.6 5.98113
  Final line search alpha, max atom move = 0.00575341 0.0344119
  Iterations, force evaluations = 974 1940

write_dump all custom pysimm.dump.tmp id q x y z vx vy vz
quit

################################################################################
##################################    Init    ##################################
################################################################################
units           real
atom_style      full
pair_style      lj/cut/coul/long 12.0  12.0
kspace_style    pppm 1e-4
bond_style      harmonic
angle_style     harmonic
dihedral_style  fourier
improper_style  cvff
special_bonds   amber
pair_modify     mix arithmetic
read_data       temp.lmps
  orthogonal box = (-209.739 -209.739 -209.739) to (209.739 209.739 209.739)
  reading atoms ...
  3416 atoms
  reading velocities ...
  3416 velocities
  scanning bonds ...
  scanning angles ...
  scanning dihedrals ...
  scanning impropers ...
  reading bonds ...
  3952 bonds
  reading angles ...
  8184 angles
  reading dihedrals ...
  15008 dihedrals
  reading impropers ...
  264 impropers
################################################################################

min_style cg
minimize 1e-06 1e-06 1000000 10000000
PPPM initialization ...
  G vector (1/distance) = 0.148608
  grid = 72 72 72
  stencil order = 5
  estimated absolute RMS force accuracy = 0.000650455
  estimated relative force accuracy = 1.95883e-06
  3d grid and FFT values/proc = 456533 373248
  update every 1 steps, delay 0 steps, check yes
Loop time of 106.432 on 1 procs for 398 steps with 3416 atoms

Minimization stats:
  Stopping criterion = energy tolerance
  Energy initial, next-to-last, final =
  Force two-norm initial, final = 43621.8 13.8407
  Force max component initial, final = 14857.8 4.85271
  Final line search alpha, max atom move = 0.0308956 0.149927
  Iterations, force evaluations = 398 789

write_dump all custom pysimm.dump.tmp id q x y z vx vy vz
quit

################################################################################
##################################    Init    ##################################
################################################################################
units           real
atom_style      full
pair_style      lj/cut/coul/long 12.0  12.0
kspace_style    pppm 1e-4
bond_style      harmonic
angle_style     harmonic
dihedral_style  fourier
improper_style  cvff
special_bonds   amber
pair_modify     mix arithmetic
read_data       temp.lmps
  orthogonal box = (-211.353 -211.353 -211.353) to (211.353 211.353 211.353)
  reading atoms ...
  3494 atoms
  reading velocities ...
  3494 velocities
  scanning bonds ...
  scanning angles ...
  scanning dihedrals ...
  scanning impropers ...
  reading bonds ...
  4042 bonds
  reading angles ...
  8370 angles
  reading dihedrals ...
  15348 dihedrals
  reading impropers ...
  270 impropers
################################################################################

min_style cg
minimize 1e-06 1e-06 1000000 10000000
PPPM initialization ...
  G vector (1/distance) = 0.147992
  grid = 72 72 72
  stencil order = 5
  estimated absolute RMS force accuracy = 0.00066762
  estimated relative force accuracy = 2.01052e-06
  3d grid and FFT values/proc = 456533 373248
  update every 1 steps, delay 0 steps, check yes
Loop time of 90.1366 on 1 procs for 341 steps with 3494 atoms

Minimization stats:
  Stopping criterion = energy tolerance
  Energy initial, next-to-last, final =
  Force two-norm initial, final = 72782.7 9.58261
  Force max component initial, final = 35858.4 1.77375
  Final line search alpha, max atom move = 0.0299067 0.0530471
  Iterations, force evaluations = 341 673

write_dump all custom pysimm.dump.tmp id q x y z vx vy vz
quit

################################################################################
##################################    Init    ##################################
################################################################################
units           real
atom_style      full
pair_style      lj/cut/coul/long 12.0  12.0
kspace_style    pppm 1e-4
bond_style      harmonic
angle_style     harmonic
dihedral_style  fourier
improper_style  cvff
special_bonds   amber
pair_modify     mix arithmetic
read_data       temp.lmps
  orthogonal box = (-212.942 -212.942 -212.942) to (212.942 212.942 212.942)
  reading atoms ...
  3572 atoms
  reading velocities ...
  3572 velocities
  scanning bonds ...
  scanning angles ...
  scanning dihedrals ...
  scanning impropers ...
  reading bonds ...
  4132 bonds
  reading angles ...
  8556 angles
  reading dihedrals ...
  15688 dihedrals
  reading impropers ...
  276 impropers
################################################################################

min_style cg
minimize 1e-06 1e-06 1000000 10000000
PPPM initialization ...
  G vector (1/distance) = 0.14739
  grid = 72 72 72
  stencil order = 5
  estimated absolute RMS force accuracy = 0.000684767
  estimated relative force accuracy = 2.06216e-06
  3d grid and FFT values/proc = 456533 373248
  update every 1 steps, delay 0 steps, check yes
Loop time of 105.339 on 1 procs for 404 steps with 3572 atoms

Minimization stats:
  Stopping criterion = energy tolerance
  Energy initial, next-to-last, final =
  Force two-norm initial, final = 64581.8 16.9802
  Force max component initial, final = 29254.4 5.59341
  Final line search alpha, max atom move = 0.018409 0.102969
  Iterations, force evaluations = 404 801

write_dump all custom pysimm.dump.tmp id q x y z vx vy vz
quit

################################################################################
##################################    Init    ##################################
################################################################################
units           real
atom_style      full
pair_style      lj/cut/coul/long 12.0  12.0
kspace_style    pppm 1e-4
bond_style      harmonic
angle_style     harmonic
dihedral_style  fourier
improper_style  cvff
special_bonds   amber
pair_modify     mix arithmetic
read_data       temp.lmps
  orthogonal box = (-214.508 -214.508 -214.508) to (214.508 214.508 214.508)
  reading atoms ...
  3650 atoms
  reading velocities ...
  3650 velocities
  scanning bonds ...
  scanning angles ...
  scanning dihedrals ...
  scanning impropers ...
  reading bonds ...
  4222 bonds
  reading angles ...
  8742 angles
  reading dihedrals ...
  16028 dihedrals
  reading impropers ...
  282 impropers
################################################################################

min_style cg
minimize 1e-06 1e-06 1000000 10000000
PPPM initialization ...
  G vector (1/distance) = 0.146803
  grid = 72 72 72
  stencil order = 5
  estimated absolute RMS force accuracy = 0.000701894
  estimated relative force accuracy = 2.11373e-06
  3d grid and FFT values/proc = 456533 373248
  update every 1 steps, delay 0 steps, check yes
Loop time of 81.5073 on 1 procs for 314 steps with 3650 atoms

Minimization stats:
  Stopping criterion = energy tolerance
  Energy initial, next-to-last, final =
  Force two-norm initial, final = 4.21757e+06 12.9784
  Force max component initial, final = 2.81918e+06 1.76993
  Final line search alpha, max atom move = 0.0324781 0.0574839
  Iterations, force evaluations = 314 623

write_dump all custom pysimm.dump.tmp id q x y z vx vy vz
quit

################################################################################
##################################    Init    ##################################
################################################################################
units           real
atom_style      full
pair_style      lj/cut/coul/long 12.0  12.0
kspace_style    pppm 1e-4
bond_style      harmonic
angle_style     harmonic
dihedral_style  fourier
improper_style  cvff
special_bonds   amber
pair_modify     mix arithmetic
read_data       temp.lmps
  orthogonal box = (-216.051 -216.051 -216.051) to (216.051 216.051 216.051)
  reading atoms ...
  3728 atoms
  reading velocities ...
  3728 velocities
  scanning bonds ...
  scanning angles ...
  scanning dihedrals ...
  scanning impropers ...
  reading bonds ...
  4312 bonds
  reading angles ...
  8928 angles
  reading dihedrals ...
  16368 dihedrals
  reading impropers ...
  288 impropers
################################################################################

min_style cg
minimize 1e-06 1e-06 1000000 10000000
PPPM initialization ...
  G vector (1/distance) = 0.146228
  grid = 72 72 72
  stencil order = 5
  estimated absolute RMS force accuracy = 0.000719
  estimated relative force accuracy = 2.16525e-06
  3d grid and FFT values/proc = 456533 373248
  update every 1 steps, delay 0 steps, check yes
Loop time of 77.4182 on 1 procs for 298 steps with 3728 atoms

Minimization stats:
  Stopping criterion = energy tolerance
  Energy initial, next-to-last, final =
  Force two-norm initial, final = 82611.7 13.3783
  Force max component initial, final = 47024.6 1.49295
  Final line search alpha, max atom move = 0.0333464 0.0497846
  Iterations, force evaluations = 298 590

write_dump all custom pysimm.dump.tmp id q x y z vx vy vz
quit

################################################################################
##################################    Init    ##################################
################################################################################
units           real
atom_style      full
pair_style      lj/cut/coul/long 12.0  12.0
kspace_style    pppm 1e-4
bond_style      harmonic
angle_style     harmonic
dihedral_style  fourier
improper_style  cvff
special_bonds   amber
pair_modify     mix arithmetic
read_data       temp.lmps
  orthogonal box = (-217.573 -217.573 -217.573) to (217.573 217.573 217.573)
  reading atoms ...
  3806 atoms
  reading velocities ...
  3806 velocities
  scanning bonds ...
  scanning angles ...
  scanning dihedrals ...
  scanning impropers ...
  reading bonds ...
  4402 bonds
  reading angles ...
  9114 angles
  reading dihedrals ...
  16708 dihedrals
  reading impropers ...
  294 impropers
################################################################################

min_style cg
minimize 1e-06 1e-06 1000000 10000000
PPPM initialization ...
  G vector (1/distance) = 0.145667
  grid = 72 72 72
  stencil order = 5
  estimated absolute RMS force accuracy = 0.000736085
  estimated relative force accuracy = 2.2167e-06
  3d grid and FFT values/proc = 456533 373248
  update every 1 steps, delay 0 steps, check yes
Loop time of 68.7162 on 1 procs for 263 steps with 3806 atoms

Minimization stats:
  Stopping criterion = energy tolerance
  Energy initial, next-to-last, final =
  Force two-norm initial, final = 105998 10.138
  Force max component initial, final = 63825.5 2.56955
  Final line search alpha, max atom move = 0.0330505 0.0849251
  Iterations, force evaluations = 263 519

write_dump all custom pysimm.dump.tmp id q x y z vx vy vz
quit

################################################################################
##################################    Init    ##################################
################################################################################
units           real
atom_style      full
pair_style      lj/cut/coul/long 12.0  12.0
kspace_style    pppm 1e-4
bond_style      harmonic
angle_style     harmonic
dihedral_style  fourier
improper_style  cvff
special_bonds   amber
pair_modify     mix arithmetic
read_data       temp.lmps
  orthogonal box = (-219.073 -219.073 -219.073) to (219.073 219.073 219.073)
  reading atoms ...
  3884 atoms
  reading velocities ...
  3884 velocities
  scanning bonds ...
  scanning angles ...
  scanning dihedrals ...
  scanning impropers ...
  reading bonds ...
  4492 bonds
  reading angles ...
  9300 angles
  reading dihedrals ...
  17048 dihedrals
  reading impropers ...
  300 impropers
################################################################################

min_style cg
minimize 1e-06 1e-06 1000000 10000000
PPPM initialization ...
  G vector (1/distance) = 0.145118
  grid = 72 72 72
  stencil order = 5
  estimated absolute RMS force accuracy = 0.000753149
  estimated relative force accuracy = 2.26809e-06
  3d grid and FFT values/proc = 456533 373248
  update every 1 steps, delay 0 steps, check yes
Loop time of 115.865 on 1 procs for 462 steps with 3884 atoms

Minimization stats:
  Stopping criterion = energy tolerance
  Energy initial, next-to-last, final =
  Force two-norm initial, final = 32565.3 11.8058
  Force max component initial, final = 14012.5 6.77685
  Final line search alpha, max atom move = 0.0276661 0.187489
  Iterations, force evaluations = 462 916

write_dump all custom pysimm.dump.tmp id q x y z vx vy vz
quit
