################################################################################
##################################    Init    ##################################
################################################################################
units           real
atom_style      full
pair_style      lj/cut/coul/long 12.0  12.0
kspace_style    pppm 1e-4
bond_style      harmonic
angle_style     harmonic
dihedral_style  fourier
improper_style  cvff
special_bonds   amber
pair_modify     mix arithmetic
read_data       temp.lmps
  orthogonal box = (-95.2802 -95.2802 -95.2802) to (95.2802 95.2802 95.2802)
  reading atoms ...
  644 atoms
  reading velocities ...
  644 velocities
  scanning bonds ...
  scanning angles ...
  scanning dihedrals ...
  scanning impropers ...
  reading bonds ...
  742 bonds
  reading angles ...
  1560 angles
  reading dihedrals ...
  2868 dihedrals
  reading impropers ...
  40 impropers
################################################################################

min_style cg
minimize 1e-06 1e-06 1000000 10000000
PPPM initialization ...
  G vector (1/distance) = 0.141731
  grid = 30 30 30
  stencil order = 5
  estimated absolute RMS force accuracy = 0.00181966
  estimated relative force accuracy = 5.47985e-06
  3d grid and FFT values/proc = 42875 27000
  update every 1 steps, delay 0 steps, check yes
Step Temp E_pair E_mol TotEng Press
0    420.80579     176.3457    4764.7271    5747.6148  -0.29071484
Loop time of 7.58832 on 1 procs for 476 steps with 644 atoms

Minimization stats:
  Stopping criterion = energy tolerance
  Energy initial, next-to-last, final =
  Force two-norm initial, final = 858.532 9.14095
  Force max component initial, final = 287.557 1.32695
  Final line search alpha, max atom move = 0.0090686 0.0120336
  Iterations, force evaluations = 476 950

write_dump all custom pysimm.dump.tmp id q x y z vx vy vz
quit

################################################################################
##################################    Init    ##################################
################################################################################
units           real
atom_style      full
pair_style      lj/cut/coul/long 12.0  12.0
kspace_style    pppm 1e-4
bond_style      harmonic
angle_style     harmonic
dihedral_style  fourier
improper_style  cvff
special_bonds   amber
pair_modify     mix arithmetic
read_data       temp.lmps
  orthogonal box = (-95.2802 -95.2802 -95.2802) to (95.2802 95.2802 95.2802)
  reading atoms ...
  644 atoms
  reading velocities ...
  644 velocities
  scanning bonds ...
  scanning angles ...
  scanning dihedrals ...
  scanning impropers ...
  reading bonds ...
  742 bonds
  reading angles ...
  1560 angles
  reading dihedrals ...
  2868 dihedrals
  reading impropers ...
  40 impropers
################################################################################

min_style cg
minimize 1e-06 1e-06 1000000 10000000
PPPM initialization ...
  G vector (1/distance) = 0.141731
  grid = 30 30 30
  stencil order = 5
  estimated absolute RMS force accuracy = 0.00181966
  estimated relative force accuracy = 5.47985e-06
  3d grid and FFT values/proc = 42875 27000
  update every 1 steps, delay 0 steps, check yes
Step Temp E_pair E_mol TotEng Press
0    402.53874    183.04871    4686.4738    5641.0528  -0.23944688
Loop time of 6.27369 on 1 procs for 390 steps with 644 atoms

Minimization stats:
  Stopping criterion = linesearch alpha is zero
  Energy initial, next-to-last, final =
  Force two-norm initial, final = 855.162 10.246
  Force max component initial, final = 302.335 1.49212
  Final line search alpha, max atom move = 8.24325e-11 1.22999e-10
  Iterations, force evaluations = 390 829

write_dump all custom pysimm.dump.tmp id q x y z vx vy vz
quit

################################################################################
##################################    Init    ##################################
################################################################################
units           real
atom_style      full
pair_style      lj/cut/coul/long 12.0  12.0
kspace_style    pppm 1e-4
bond_style      harmonic
angle_style     harmonic
dihedral_style  fourier
improper_style  cvff
special_bonds   amber
pair_modify     mix arithmetic
read_data       temp.lmps
  orthogonal box = (-95.2802 -95.2802 -95.2802) to (95.2802 95.2802 95.2802)
  reading atoms ...
  644 atoms
  reading velocities ...
  644 velocities
  scanning bonds ...
  scanning angles ...
  scanning dihedrals ...
  scanning impropers ...
  reading bonds ...
  742 bonds
  reading angles ...
  1560 angles
  reading dihedrals ...
  2868 dihedrals
  reading impropers ...
  40 impropers
################################################################################

min_style cg
minimize 1e-06 1e-06 1000000 10000000
PPPM initialization ...
  G vector (1/distance) = 0.141731
  grid = 30 30 30
  stencil order = 5
  estimated absolute RMS force accuracy = 0.00181966
  estimated relative force accuracy = 5.47985e-06
  3d grid and FFT values/proc = 42875 27000
  update every 1 steps, delay 0 steps, check yes
Step Temp E_pair E_mol TotEng Press
0    388.88636    167.35283    4667.7142    5580.4303   -1.2283332
Loop time of 5.37009 on 1 procs for 335 steps with 644 atoms

Minimization stats:
  Stopping criterion = linesearch alpha is zero
  Energy initial, next-to-last, final =
  Force two-norm initial, final = 854.289 9.51489
  Force max component initial, final = 296.636 1.00074
  Final line search alpha, max atom move = 8.8581e-11 8.86466e-11
  Iterations, force evaluations = 335 719

write_dump all custom pysimm.dump.tmp id q x y z vx vy vz
quit

################################################################################
##################################    Init    ##################################
################################################################################
units           real
atom_style      full
pair_style      lj/cut/coul/long 12.0  12.0
kspace_style    pppm 1e-4
bond_style      harmonic
angle_style     harmonic
dihedral_style  fourier
improper_style  cvff
special_bonds   amber
pair_modify     mix arithmetic
read_data       temp.lmps
  orthogonal box = (-120.046 -120.046 -120.046) to (120.046 120.046 120.046)
  reading atoms ...
  710 atoms
  reading velocities ...
  710 velocities
  scanning bonds ...
  scanning angles ...
  scanning dihedrals ...
  scanning impropers ...
  reading bonds ...
  817 bonds
  reading angles ...
  1716 angles
  reading dihedrals ...
  3150 dihedrals
  reading impropers ...
  44 impropers
################################################################################

min_style cg
minimize 1e-06 1e-06 1000000 10000000
PPPM initialization ...
  G vector (1/distance) = 0.146217
  grid = 40 40 40
  stencil order = 5
  estimated absolute RMS force accuracy = 0.00111565
  estimated relative force accuracy = 3.35974e-06
  3d grid and FFT values/proc = 91125 64000
  update every 1 steps, delay 0 steps, check yes
Step Temp E_pair E_mol TotEng Press
0    1001.4487    199.15414    5314.3368     7629.947    2.3419666
Loop time of 27.2419 on 1 procs for 806 steps with 710 atoms

Minimization stats:
  Stopping criterion = linesearch alpha is zero
  Energy initial, next-to-last, final =
  Force two-norm initial, final = 1045.43 7.89854
  Force max component initial, final = 297.986 1.20203
  Final line search alpha, max atom move = 1.23982e-10 1.49031e-10
  Iterations, force evaluations = 806 1661

write_dump all custom pysimm.dump.tmp id q x y z vx vy vz
quit

################################################################################
##################################    Init    ##################################
################################################################################
units           real
atom_style      full
pair_style      lj/cut/coul/long 12.0  12.0
kspace_style    pppm 1e-4
bond_style      harmonic
angle_style     harmonic
dihedral_style  fourier
improper_style  cvff
special_bonds   amber
pair_modify     mix arithmetic
read_data       temp.lmps
  orthogonal box = (-123.921 -123.921 -123.921) to (123.921 123.921 123.921)
  reading atoms ...
  776 atoms
  reading velocities ...
  776 velocities
  scanning bonds ...
  scanning angles ...
  scanning dihedrals ...
  scanning impropers ...
  reading bonds ...
  892 bonds
  reading angles ...
  1872 angles
  reading dihedrals ...
  3432 dihedrals
  reading impropers ...
  48 impropers
################################################################################

min_style cg
minimize 1e-06 1e-06 1000000 10000000
PPPM initialization ...
  G vector (1/distance) = 0.143686
  grid = 40 40 40
  stencil order = 5
  estimated absolute RMS force accuracy = 0.00123507
  estimated relative force accuracy = 3.71937e-06
  3d grid and FFT values/proc = 91125 64000
  update every 1 steps, delay 0 steps, check yes
Step Temp E_pair E_mol TotEng Press
0    916.08674    1059.7821    6080.5881    9256.6477    15.134527
Loop time of 17.4582 on 1 procs for 484 steps with 776 atoms

Minimization stats:
  Stopping criterion = linesearch alpha is zero
  Energy initial, next-to-last, final =
  Force two-norm initial, final = 11832.6 10.9547
  Force max component initial, final = 7202.16 1.36952
  Final line search alpha, max atom move = 7.51302e-11 1.02892e-10
  Iterations, force evaluations = 484 1013

write_dump all custom pysimm.dump.tmp id q x y z vx vy vz
quit

################################################################################
##################################    Init    ##################################
################################################################################
units           real
atom_style      full
pair_style      lj/cut/coul/long 12.0  12.0
kspace_style    pppm 1e-4
bond_style      harmonic
angle_style     harmonic
dihedral_style  fourier
improper_style  cvff
special_bonds   amber
pair_modify     mix arithmetic
read_data       temp.lmps
  orthogonal box = (-127.567 -127.567 -127.567) to (127.567 127.567 127.567)
  reading atoms ...
  842 atoms
  reading velocities ...
  842 velocities
  scanning bonds ...
  scanning angles ...
  scanning dihedrals ...
  scanning impropers ...
  reading bonds ...
  967 bonds
  reading angles ...
  2028 angles
  reading dihedrals ...
  3714 dihedrals
  reading impropers ...
  52 impropers
################################################################################

min_style cg
minimize 1e-06 1e-06 1000000 10000000
PPPM initialization ...
  G vector (1/distance) = 0.141409
  grid = 40 40 40
  stencil order = 5
  estimated absolute RMS force accuracy = 0.00135374
  estimated relative force accuracy = 4.07676e-06
  3d grid and FFT values/proc = 91125 64000
  update every 1 steps, delay 0 steps, check yes
Step Temp E_pair E_mol TotEng Press
0    873.48592    1446.2476    6351.8612    9987.8169    19.158685
Loop time of 21.6093 on 1 procs for 631 steps with 842 atoms

Minimization stats:
  Stopping criterion = linesearch alpha is zero
  Energy initial, next-to-last, final =
  Force two-norm initial, final = 17964 9.86213
  Force max component initial, final = 9281.86 1.59281
  Final line search alpha, max atom move = 1.06248e-10 1.69233e-10
  Iterations, force evaluations = 631 1308

write_dump all custom pysimm.dump.tmp id q x y z vx vy vz
quit

################################################################################
##################################    Init    ##################################
################################################################################
units           real
atom_style      full
pair_style      lj/cut/coul/long 12.0  12.0
kspace_style    pppm 1e-4
bond_style      harmonic
angle_style     harmonic
dihedral_style  fourier
improper_style  cvff
special_bonds   amber
pair_modify     mix arithmetic
read_data       temp.lmps
  orthogonal box = (-131.017 -131.017 -131.017) to (131.017 131.017 131.017)
  reading atoms ...
  908 atoms
  reading velocities ...
  908 velocities
  scanning bonds ...
  scanning angles ...
  scanning dihedrals ...
  scanning impropers ...
  reading bonds ...
  1042 bonds
  reading angles ...
  2184 angles
  reading dihedrals ...
  3996 dihedrals
  reading impropers ...
  56 impropers
################################################################################

min_style cg
minimize 1e-06 1e-06 1000000 10000000
PPPM initialization ...
  G vector (1/distance) = 0.148651
  grid = 45 45 45
  stencil order = 5
  estimated absolute RMS force accuracy = 0.000992767
  estimated relative force accuracy = 2.98969e-06
  3d grid and FFT values/proc = 125000 91125
  update every 1 steps, delay 0 steps, check yes
Step Temp E_pair E_mol TotEng Press
0    826.13483    2960.1874    6871.7154    12065.437    39.389851
Loop time of 43.4069 on 1 procs for 919 steps with 908 atoms

Minimization stats:
  Stopping criterion = linesearch alpha is zero
  Energy initial, next-to-last, final =
  Force two-norm initial, final = 36112.2 11.7622
  Force max component initial, final = 18015.4 1.96444
  Final line search alpha, max atom move = 4.83207e-11 9.49228e-11
  Iterations, force evaluations = 919 1887

write_dump all custom pysimm.dump.tmp id q x y z vx vy vz
quit

################################################################################
##################################    Init    ##################################
################################################################################
units           real
atom_style      full
pair_style      lj/cut/coul/long 12.0  12.0
kspace_style    pppm 1e-4
bond_style      harmonic
angle_style     harmonic
dihedral_style  fourier
improper_style  cvff
special_bonds   amber
pair_modify     mix arithmetic
read_data       temp.lmps
  orthogonal box = (-134.294 -134.294 -134.294) to (134.294 134.294 134.294)
  reading atoms ...
  974 atoms
  reading velocities ...
  974 velocities
  scanning bonds ...
  scanning angles ...
  scanning dihedrals ...
  scanning impropers ...
  reading bonds ...
  1117 bonds
  reading angles ...
  2340 angles
  reading dihedrals ...
  4278 dihedrals
  reading impropers ...
  60 impropers
################################################################################

min_style cg
minimize 1e-06 1e-06 1000000 10000000
PPPM initialization ...
  G vector (1/distance) = 0.146668
  grid = 45 45 45
  stencil order = 5
  estimated absolute RMS force accuracy = 0.001077
  estimated relative force accuracy = 3.24336e-06
  3d grid and FFT values/proc = 125000 91125
  update every 1 steps, delay 0 steps, check yes
Step Temp E_pair E_mol TotEng Press
0    763.03918    818.84366    7551.9013    10583.809    6.2074426
Loop time of 35.0401 on 1 procs for 686 steps with 974 atoms

Minimization stats:
  Stopping criterion = linesearch alpha is zero
  Energy initial, next-to-last, final =
  Force two-norm initial, final = 7230.25 11.534
  Force max component initial, final = 3759.68 2.44866
  Final line search alpha, max atom move = 6.26263e-11 1.5335e-10
  Iterations, force evaluations = 686 1422

write_dump all custom pysimm.dump.tmp id q x y z vx vy vz
quit

################################################################################
##################################    Init    ##################################
################################################################################
units           real
atom_style      full
pair_style      lj/cut/coul/long 12.0  12.0
kspace_style    pppm 1e-4
bond_style      harmonic
angle_style     harmonic
dihedral_style  fourier
improper_style  cvff
special_bonds   amber
pair_modify     mix arithmetic
read_data       temp.lmps
  orthogonal box = (-137.418 -137.418 -137.418) to (137.418 137.418 137.418)
  reading atoms ...
  1040 atoms
  reading velocities ...
  1040 velocities
  scanning bonds ...
  scanning angles ...
  scanning dihedrals ...
  scanning impropers ...
  reading bonds ...
  1192 bonds
  reading angles ...
  2496 angles
  reading dihedrals ...
  4560 dihedrals
  reading impropers ...
  64 impropers
################################################################################

min_style cg
minimize 1e-06 1e-06 1000000 10000000
PPPM initialization ...
  G vector (1/distance) = 0.144829
  grid = 45 45 45
  stencil order = 5
  estimated absolute RMS force accuracy = 0.00116085
  estimated relative force accuracy = 3.49586e-06
  3d grid and FFT values/proc = 125000 91125
  update every 1 steps, delay 0 steps, check yes
Step Temp E_pair E_mol TotEng Press
0    694.53703    11100.307    8017.7034    21269.035    140.58314
Loop time of 57.1078 on 1 procs for 1169 steps with 1040 atoms

Minimization stats:
  Stopping criterion = energy tolerance
  Energy initial, next-to-last, final =
  Force two-norm initial, final = 190847 9.15066
  Force max component initial, final = 112698 1.15611
  Final line search alpha, max atom move = 0.00680592 0.00786836
  Iterations, force evaluations = 1169 2334

write_dump all custom pysimm.dump.tmp id q x y z vx vy vz
quit

################################################################################
##################################    Init    ##################################
################################################################################
units           real
atom_style      full
pair_style      lj/cut/coul/long 12.0  12.0
kspace_style    pppm 1e-4
bond_style      harmonic
angle_style     harmonic
dihedral_style  fourier
improper_style  cvff
special_bonds   amber
pair_modify     mix arithmetic
read_data       temp.lmps
  orthogonal box = (-140.406 -140.406 -140.406) to (140.406 140.406 140.406)
  reading atoms ...
  1106 atoms
  reading velocities ...
  1106 velocities
  scanning bonds ...
  scanning angles ...
  scanning dihedrals ...
  scanning impropers ...
  reading bonds ...
  1267 bonds
  reading angles ...
  2652 angles
  reading dihedrals ...
  4842 dihedrals
  reading impropers ...
  68 impropers
################################################################################

min_style cg
minimize 1e-06 1e-06 1000000 10000000
PPPM initialization ...
  G vector (1/distance) = 0.143123
  grid = 45 45 45
  stencil order = 5
  estimated absolute RMS force accuracy = 0.00124431
  estimated relative force accuracy = 3.74721e-06
  3d grid and FFT values/proc = 125000 91125
  update every 1 steps, delay 0 steps, check yes
Step Temp E_pair E_mol TotEng Press
0     794.4649    427.38485    8549.8546    11594.044   -2.3362567
Loop time of 26.5489 on 1 procs for 532 steps with 1106 atoms

Minimization stats:
  Stopping criterion = energy tolerance
  Energy initial, next-to-last, final =
  Force two-norm initial, final = 2545.92 11.9568
  Force max component initial, final = 1241.33 1.71482
  Final line search alpha, max atom move = 0.0091847 0.0157501
  Iterations, force evaluations = 532 1060

write_dump all custom pysimm.dump.tmp id q x y z vx vy vz
quit

################################################################################
##################################    Init    ##################################
################################################################################
units           real
atom_style      full
pair_style      lj/cut/coul/long 12.0  12.0
kspace_style    pppm 1e-4
bond_style      harmonic
angle_style     harmonic
dihedral_style  fourier
improper_style  cvff
special_bonds   amber
pair_modify     mix arithmetic
read_data       temp.lmps
  orthogonal box = (-143.272 -143.272 -143.272) to (143.272 143.272 143.272)
  reading atoms ...
  1172 atoms
  reading velocities ...
  1172 velocities
  scanning bonds ...
  scanning angles ...
  scanning dihedrals ...
  scanning impropers ...
  reading bonds ...
  1342 bonds
  reading angles ...
  2808 angles
  reading dihedrals ...
  5124 dihedrals
  reading impropers ...
  72 impropers
################################################################################

min_style cg
minimize 1e-06 1e-06 1000000 10000000
PPPM initialization ...
  G vector (1/distance) = 0.14154
  grid = 45 45 45
  stencil order = 5
  estimated absolute RMS force accuracy = 0.00132746
  estimated relative force accuracy = 3.99761e-06
  3d grid and FFT values/proc = 125000 91125
  update every 1 steps, delay 0 steps, check yes
Step Temp E_pair E_mol TotEng Press
0     601.9067     1470.129    8908.1994    12479.301    8.9314327
Loop time of 30.0065 on 1 procs for 572 steps with 1172 atoms

Minimization stats:
  Stopping criterion = linesearch alpha is zero
  Energy initial, next-to-last, final =
  Force two-norm initial, final = 11758.9 11.9954
  Force max component initial, final = 4647.96 1.4195
  Final line search alpha, max atom move = 5.58341e-11 7.92567e-11
  Iterations, force evaluations = 572 1194

write_dump all custom pysimm.dump.tmp id q x y z vx vy vz
quit

################################################################################
##################################    Init    ##################################
################################################################################
units           real
atom_style      full
pair_style      lj/cut/coul/long 12.0  12.0
kspace_style    pppm 1e-4
bond_style      harmonic
angle_style     harmonic
dihedral_style  fourier
improper_style  cvff
special_bonds   amber
pair_modify     mix arithmetic
read_data       temp.lmps
  orthogonal box = (-146.028 -146.028 -146.028) to (146.028 146.028 146.028)
  reading atoms ...
  1238 atoms
  reading velocities ...
  1238 velocities
  scanning bonds ...
  scanning angles ...
  scanning dihedrals ...
  scanning impropers ...
  reading bonds ...
  1417 bonds
  reading angles ...
  2964 angles
  reading dihedrals ...
  5406 dihedrals
  reading impropers ...
  76 impropers
################################################################################

min_style cg
minimize 1e-06 1e-06 1000000 10000000
PPPM initialization ...
  G vector (1/distance) = 0.145129
  grid = 48 48 48
  stencil order = 5
  estimated absolute RMS force accuracy = 0.00113888
  estimated relative force accuracy = 3.42971e-06
  3d grid and FFT values/proc = 148877 110592
  update every 1 steps, delay 0 steps, check yes
Step Temp E_pair E_mol TotEng Press
0    685.86949    467.64066    9376.4416    12373.063   -2.6601622
Loop time of 42.8473 on 1 procs for 693 steps with 1238 atoms

Minimization stats:
  Stopping criterion = energy tolerance
  Energy initial, next-to-last, final =
  Force two-norm initial, final = 2373.32 11.6042
  Force max component initial, final = 935.267 2.059
  Final line search alpha, max atom move = 0.00852064 0.017544
  Iterations, force evaluations = 693 1383

write_dump all custom pysimm.dump.tmp id q x y z vx vy vz
quit

################################################################################
##################################    Init    ##################################
################################################################################
units           real
atom_style      full
pair_style      lj/cut/coul/long 12.0  12.0
kspace_style    pppm 1e-4
bond_style      harmonic
angle_style     harmonic
dihedral_style  fourier
improper_style  cvff
special_bonds   amber
pair_modify     mix arithmetic
read_data       temp.lmps
  orthogonal box = (-148.684 -148.684 -148.684) to (148.684 148.684 148.684)
  reading atoms ...
  1304 atoms
  reading velocities ...
  1304 velocities
  scanning bonds ...
  scanning angles ...
  scanning dihedrals ...
  scanning impropers ...
  reading bonds ...
  1492 bonds
  reading angles ...
  3120 angles
  reading dihedrals ...
  5688 dihedrals
  reading impropers ...
  80 impropers
################################################################################

min_style cg
minimize 1e-06 1e-06 1000000 10000000
PPPM initialization ...
  G vector (1/distance) = 0.143697
  grid = 48 48 48
  stencil order = 5
  estimated absolute RMS force accuracy = 0.00120767
  estimated relative force accuracy = 3.63686e-06
  3d grid and FFT values/proc = 148877 110592
  update every 1 steps, delay 0 steps, check yes
Step Temp E_pair E_mol TotEng Press
0    835.36132    157701.84    10096.579    171042.96     1636.902
Loop time of 42.6127 on 1 procs for 655 steps with 1304 atoms

Minimization stats:
  Stopping criterion = linesearch alpha is zero
  Energy initial, next-to-last, final =
  Force two-norm initial, final = 3.47919e+06 10.7757
  Force max component initial, final = 2.26444e+06 1.80861
  Final line search alpha, max atom move = 5.37443e-11 9.72027e-11
  Iterations, force evaluations = 655 1359

write_dump all custom pysimm.dump.tmp id q x y z vx vy vz
quit

################################################################################
##################################    Init    ##################################
################################################################################
units           real
atom_style      full
pair_style      lj/cut/coul/long 12.0  12.0
kspace_style    pppm 1e-4
bond_style      harmonic
angle_style     harmonic
dihedral_style  fourier
improper_style  cvff
special_bonds   amber
pair_modify     mix arithmetic
read_data       temp.lmps
  orthogonal box = (-151.248 -151.248 -151.248) to (151.248 151.248 151.248)
  reading atoms ...
  1370 atoms
  reading velocities ...
  1370 velocities
  scanning bonds ...
  scanning angles ...
  scanning dihedrals ...
  scanning impropers ...
  reading bonds ...
  1567 bonds
  reading angles ...
  3276 angles
  reading dihedrals ...
  5970 dihedrals
  reading impropers ...
  84 impropers
################################################################################

min_style cg
minimize 1e-06 1e-06 1000000 10000000
PPPM initialization ...
  G vector (1/distance) = 0.142349
  grid = 48 48 48
  stencil order = 5
  estimated absolute RMS force accuracy = 0.00127623
  estimated relative force accuracy = 3.84332e-06
  3d grid and FFT values/proc = 148877 110592
  update every 1 steps, delay 0 steps, check yes
Step Temp E_pair E_mol TotEng Press
0    614.82185    1326.7443    10439.273    14274.939    3.8609808
Loop time of 46.5751 on 1 procs for 713 steps with 1370 atoms

Minimization stats:
  Stopping criterion = linesearch alpha is zero
  Energy initial, next-to-last, final =
  Force two-norm initial, final = 13004.6 12.471
  Force max component initial, final = 6783.24 1.07726
  Final line search alpha, max atom move = 7.53962e-11 8.1221e-11
  Iterations, force evaluations = 713 1473

write_dump all custom pysimm.dump.tmp id q x y z vx vy vz
quit

################################################################################
##################################    Init    ##################################
################################################################################
units           real
atom_style      full
pair_style      lj/cut/coul/long 12.0  12.0
kspace_style    pppm 1e-4
bond_style      harmonic
angle_style     harmonic
dihedral_style  fourier
improper_style  cvff
special_bonds   amber
pair_modify     mix arithmetic
read_data       temp.lmps
  orthogonal box = (-153.728 -153.728 -153.728) to (153.728 153.728 153.728)
  reading atoms ...
  1436 atoms
  reading velocities ...
  1436 velocities
  scanning bonds ...
  scanning angles ...
  scanning dihedrals ...
  scanning impropers ...
  reading bonds ...
  1642 bonds
  reading angles ...
  3432 angles
  reading dihedrals ...
  6252 dihedrals
  reading impropers ...
  88 impropers
################################################################################

min_style cg
minimize 1e-06 1e-06 1000000 10000000
PPPM initialization ...
  G vector (1/distance) = 0.141082
  grid = 48 48 48
  stencil order = 5
  estimated absolute RMS force accuracy = 0.00134461
  estimated relative force accuracy = 4.04926e-06
  3d grid and FFT values/proc = 148877 110592
  update every 1 steps, delay 0 steps, check yes
Step Temp E_pair E_mol TotEng Press
0    645.26669    1348.7416    10918.548    15027.394     2.996903
Loop time of 33.5561 on 1 procs for 528 steps with 1436 atoms

Minimization stats:
  Stopping criterion = energy tolerance
  Energy initial, next-to-last, final =
  Force two-norm initial, final = 6498.13 11.7102
  Force max component initial, final = 2522.84 1.41745
  Final line search alpha, max atom move = 0.00841045 0.0119214
  Iterations, force evaluations = 528 1052

write_dump all custom pysimm.dump.tmp id q x y z vx vy vz
quit

################################################################################
##################################    Init    ##################################
################################################################################
units           real
atom_style      full
pair_style      lj/cut/coul/long 12.0  12.0
kspace_style    pppm 1e-4
bond_style      harmonic
angle_style     harmonic
dihedral_style  fourier
improper_style  cvff
special_bonds   amber
pair_modify     mix arithmetic
read_data       temp.lmps
  orthogonal box = (-156.13 -156.13 -156.13) to (156.13 156.13 156.13)
  reading atoms ...
  1502 atoms
  reading velocities ...
  1502 velocities
  scanning bonds ...
  scanning angles ...
  scanning dihedrals ...
  scanning impropers ...
  reading bonds ...
  1717 bonds
  reading angles ...
  3588 angles
  reading dihedrals ...
  6534 dihedrals
  reading impropers ...
  92 impropers
################################################################################

min_style cg
minimize 1e-06 1e-06 1000000 10000000
PPPM initialization ...
  G vector (1/distance) = 0.143061
  grid = 50 50 50
  stencil order = 5
  estimated absolute RMS force accuracy = 0.00123521
  estimated relative force accuracy = 3.71979e-06
  3d grid and FFT values/proc = 166375 125000
  update every 1 steps, delay 0 steps, check yes
Step Temp E_pair E_mol TotEng Press
0    674.30922    3933.1823    11500.021    18450.194    25.213389
Loop time of 34.5892 on 1 procs for 463 steps with 1502 atoms

Minimization stats:
  Stopping criterion = energy tolerance
  Energy initial, next-to-last, final =
  Force two-norm initial, final = 56766.2 11.7096
  Force max component initial, final = 35122.4 1.21456
  Final line search alpha, max atom move = 0.00853299 0.0103638
  Iterations, force evaluations = 463 922

write_dump all custom pysimm.dump.tmp id q x y z vx vy vz
quit

################################################################################
##################################    Init    ##################################
################################################################################
units           real
atom_style      full
pair_style      lj/cut/coul/long 12.0  12.0
kspace_style    pppm 1e-4
bond_style      harmonic
angle_style     harmonic
dihedral_style  fourier
improper_style  cvff
special_bonds   amber
pair_modify     mix arithmetic
read_data       temp.lmps
  orthogonal box = (-158.461 -158.461 -158.461) to (158.461 158.461 158.461)
  reading atoms ...
  1568 atoms
  reading velocities ...
  1568 velocities
  scanning bonds ...
  scanning angles ...
  scanning dihedrals ...
  scanning impropers ...
  reading bonds ...
  1792 bonds
  reading angles ...
  3744 angles
  reading dihedrals ...
  6816 dihedrals
  reading impropers ...
  96 impropers
################################################################################

min_style cg
minimize 1e-06 1e-06 1000000 10000000
PPPM initialization ...
  G vector (1/distance) = 0.141898
  grid = 50 50 50
  stencil order = 5
  estimated absolute RMS force accuracy = 0.00129577
  estimated relative force accuracy = 3.90217e-06
  3d grid and FFT values/proc = 166375 125000
  update every 1 steps, delay 0 steps, check yes
Step Temp E_pair E_mol TotEng Press
0    677.06463    2415.3162     12024.02    17601.858    10.336573
Loop time of 51.2532 on 1 procs for 653 steps with 1568 atoms

Minimization stats:
  Stopping criterion = linesearch alpha is zero
  Energy initial, next-to-last, final =
  Force two-norm initial, final = 25911.1 13.3788
  Force max component initial, final = 15091.3 1.45592
  Final line search alpha, max atom move = 5.47069e-11 7.96489e-11
  Iterations, force evaluations = 653 1355

write_dump all custom pysimm.dump.tmp id q x y z vx vy vz
quit

################################################################################
##################################    Init    ##################################
################################################################################
units           real
atom_style      full
pair_style      lj/cut/coul/long 12.0  12.0
kspace_style    pppm 1e-4
bond_style      harmonic
angle_style     harmonic
dihedral_style  fourier
improper_style  cvff
special_bonds   amber
pair_modify     mix arithmetic
read_data       temp.lmps
  orthogonal box = (-160.725 -160.725 -160.725) to (160.725 160.725 160.725)
  reading atoms ...
  1634 atoms
  reading velocities ...
  1634 velocities
  scanning bonds ...
  scanning angles ...
  scanning dihedrals ...
  scanning impropers ...
  reading bonds ...
  1867 bonds
  reading angles ...
  3900 angles
  reading dihedrals ...
  7098 dihedrals
  reading impropers ...
  100 impropers
################################################################################

min_style cg
minimize 1e-06 1e-06 1000000 10000000
PPPM initialization ...
  G vector (1/distance) = 0.140798
  grid = 50 50 50
  stencil order = 5
  estimated absolute RMS force accuracy = 0.00135622
  estimated relative force accuracy = 4.0842e-06
  3d grid and FFT values/proc = 166375 125000
  update every 1 steps, delay 0 steps, check yes
Step Temp E_pair E_mol TotEng Press
0    711.65584    1801.4386    12641.012    17906.551    4.2851372
Loop time of 54.5926 on 1 procs for 693 steps with 1634 atoms

Minimization stats:
  Stopping criterion = linesearch alpha is zero
  Energy initial, next-to-last, final =
  Force two-norm initial, final = 19957.3 13.365
  Force max component initial, final = 13601.5 1.63413
  Final line search alpha, max atom move = 4.71886e-11 7.71121e-11
  Iterations, force evaluations = 693 1433

write_dump all custom pysimm.dump.tmp id q x y z vx vy vz
quit

################################################################################
##################################    Init    ##################################
################################################################################
units           real
atom_style      full
pair_style      lj/cut/coul/long 12.0  12.0
kspace_style    pppm 1e-4
bond_style      harmonic
angle_style     harmonic
dihedral_style  fourier
improper_style  cvff
special_bonds   amber
pair_modify     mix arithmetic
read_data       temp.lmps
  orthogonal box = (-162.927 -162.927 -162.927) to (162.927 162.927 162.927)
  reading atoms ...
  1700 atoms
  reading velocities ...
  1700 velocities
  scanning bonds ...
  scanning angles ...
  scanning dihedrals ...
  scanning impropers ...
  reading bonds ...
  1942 bonds
  reading angles ...
  4056 angles
  reading dihedrals ...
  7380 dihedrals
  reading impropers ...
  104 impropers
################################################################################

min_style cg
minimize 1e-06 1e-06 1000000 10000000
PPPM initialization ...
  G vector (1/distance) = 0.145791
  grid = 54 54 54
  stencil order = 5
  estimated absolute RMS force accuracy = 0.00109742
  estimated relative force accuracy = 3.30484e-06
  3d grid and FFT values/proc = 205379 157464
  update every 1 steps, delay 0 steps, check yes
Step Temp E_pair E_mol TotEng Press
0    619.04202    6487.7047    13068.521      22691.3    40.524987
Loop time of 82.1939 on 1 procs for 803 steps with 1700 atoms

Minimization stats:
  Stopping criterion = energy tolerance
  Energy initial, next-to-last, final =
  Force two-norm initial, final = 62830.5 13.8514
  Force max component initial, final = 28220.1 1.25245
  Final line search alpha, max atom move = 0.00368601 0.00461655
  Iterations, force evaluations = 803 1602

write_dump all custom pysimm.dump.tmp id q x y z vx vy vz
quit

################################################################################
##################################    Init    ##################################
################################################################################
units           real
atom_style      full
pair_style      lj/cut/coul/long 12.0  12.0
kspace_style    pppm 1e-4
bond_style      harmonic
angle_style     harmonic
dihedral_style  fourier
improper_style  cvff
special_bonds   amber
pair_modify     mix arithmetic
read_data       temp.lmps
  orthogonal box = (-165.071 -165.071 -165.071) to (165.071 165.071 165.071)
  reading atoms ...
  1766 atoms
  reading velocities ...
  1766 velocities
  scanning bonds ...
  scanning angles ...
  scanning dihedrals ...
  scanning impropers ...
  reading bonds ...
  2017 bonds
  reading angles ...
  4212 angles
  reading dihedrals ...
  7662 dihedrals
  reading impropers ...
  108 impropers
################################################################################

min_style cg
minimize 1e-06 1e-06 1000000 10000000
PPPM initialization ...
  G vector (1/distance) = 0.144747
  grid = 54 54 54
  stencil order = 5
  estimated absolute RMS force accuracy = 0.00114577
  estimated relative force accuracy = 3.45045e-06
  3d grid and FFT values/proc = 205379 157464
  update every 1 steps, delay 0 steps, check yes
Step Temp E_pair E_mol TotEng Press
0    499.71762    903.78508    13566.529    17099.393   -4.0795296
Loop time of 105.543 on 1 procs for 1002 steps with 1766 atoms

Minimization stats:
  Stopping criterion = linesearch alpha is zero
  Energy initial, next-to-last, final =
  Force two-norm initial, final = 4580.24 11.9101
  Force max component initial, final = 2154.14 1.77414
  Final line search alpha, max atom move = 4.82089e-11 8.55295e-11
  Iterations, force evaluations = 1002 2049

write_dump all custom pysimm.dump.tmp id q x y z vx vy vz
quit

################################################################################
##################################    Init    ##################################
################################################################################
units           real
atom_style      full
pair_style      lj/cut/coul/long 12.0  12.0
kspace_style    pppm 1e-4
bond_style      harmonic
angle_style     harmonic
dihedral_style  fourier
improper_style  cvff
special_bonds   amber
pair_modify     mix arithmetic
read_data       temp.lmps
  orthogonal box = (-167.161 -167.161 -167.161) to (167.161 167.161 167.161)
  reading atoms ...
  1832 atoms
  reading velocities ...
  1832 velocities
  scanning bonds ...
  scanning angles ...
  scanning dihedrals ...
  scanning impropers ...
  reading bonds ...
  2092 bonds
  reading angles ...
  4368 angles
  reading dihedrals ...
  7944 dihedrals
  reading impropers ...
  112 impropers
################################################################################

min_style cg
minimize 1e-06 1e-06 1000000 10000000
PPPM initialization ...
  G vector (1/distance) = 0.143748
  grid = 54 54 54
  stencil order = 5
  estimated absolute RMS force accuracy = 0.001194
  estimated relative force accuracy = 3.59571e-06
  3d grid and FFT values/proc = 205379 157464
  update every 1 steps, delay 0 steps, check yes
Step Temp E_pair E_mol TotEng Press
0    453.88019     1213.833    14017.843    17708.892   -3.1993229
Loop time of 69.8229 on 1 procs for 669 steps with 1832 atoms

Minimization stats:
  Stopping criterion = energy tolerance
  Energy initial, next-to-last, final =
  Force two-norm initial, final = 6126.93 11.4371
  Force max component initial, final = 3306.79 1.30611
  Final line search alpha, max atom move = 0.00709 0.00926033
  Iterations, force evaluations = 669 1334

write_dump all custom pysimm.dump.tmp id q x y z vx vy vz
quit

################################################################################
##################################    Init    ##################################
################################################################################
units           real
atom_style      full
pair_style      lj/cut/coul/long 12.0  12.0
kspace_style    pppm 1e-4
bond_style      harmonic
angle_style     harmonic
dihedral_style  fourier
improper_style  cvff
special_bonds   amber
pair_modify     mix arithmetic
read_data       temp.lmps
  orthogonal box = (-169.199 -169.199 -169.199) to (169.199 169.199 169.199)
  reading atoms ...
  1898 atoms
  reading velocities ...
  1898 velocities
  scanning bonds ...
  scanning angles ...
  scanning dihedrals ...
  scanning impropers ...
  reading bonds ...
  2167 bonds
  reading angles ...
  4524 angles
  reading dihedrals ...
  8226 dihedrals
  reading impropers ...
  116 impropers
################################################################################

min_style cg
minimize 1e-06 1e-06 1000000 10000000
PPPM initialization ...
  G vector (1/distance) = 0.142791
  grid = 54 54 54
  stencil order = 5
  estimated absolute RMS force accuracy = 0.00124213
  estimated relative force accuracy = 3.74063e-06
  3d grid and FFT values/proc = 205379 157464
  update every 1 steps, delay 0 steps, check yes
Step Temp E_pair E_mol TotEng Press
0    492.67243    7077.6444    14481.424    24344.932     38.76837
Loop time of 45.6178 on 1 procs for 407 steps with 1898 atoms

Minimization stats:
  Stopping criterion = linesearch alpha is zero
  Energy initial, next-to-last, final =
  Force two-norm initial, final = 89841.7 16.9334
  Force max component initial, final = 38768 1.39644
  Final line search alpha, max atom move = 2.9543e-11 4.1255e-11
  Iterations, force evaluations = 407 864

write_dump all custom pysimm.dump.tmp id q x y z vx vy vz
quit

################################################################################
##################################    Init    ##################################
################################################################################
units           real
atom_style      full
pair_style      lj/cut/coul/long 12.0  12.0
kspace_style    pppm 1e-4
bond_style      harmonic
angle_style     harmonic
dihedral_style  fourier
improper_style  cvff
special_bonds   amber
pair_modify     mix arithmetic
read_data       temp.lmps
  orthogonal box = (-171.19 -171.19 -171.19) to (171.19 171.19 171.19)
  reading atoms ...
  1964 atoms
  reading velocities ...
  1964 velocities
  scanning bonds ...
  scanning angles ...
  scanning dihedrals ...
  scanning impropers ...
  reading bonds ...
  2242 bonds
  reading angles ...
  4680 angles
  reading dihedrals ...
  8508 dihedrals
  reading impropers ...
  120 impropers
################################################################################

min_style cg
minimize 1e-06 1e-06 1000000 10000000
PPPM initialization ...
  G vector (1/distance) = 0.141874
  grid = 54 54 54
  stencil order = 5
  estimated absolute RMS force accuracy = 0.00129016
  estimated relative force accuracy = 3.88528e-06
  3d grid and FFT values/proc = 205379 157464
  update every 1 steps, delay 0 steps, check yes
Step Temp E_pair E_mol TotEng Press
0    463.60079    3388.3899     15016.61    21117.681    11.514191
Loop time of 81.1703 on 1 procs for 762 steps with 1964 atoms

Minimization stats:
  Stopping criterion = energy tolerance
  Energy initial, next-to-last, final =
  Force two-norm initial, final = 24762.1 14.6581
  Force max component initial, final = 12551.3 2.11734
  Final line search alpha, max atom move = 0.00614554 0.0130122
  Iterations, force evaluations = 762 1518

write_dump all custom pysimm.dump.tmp id q x y z vx vy vz
quit

################################################################################
##################################    Init    ##################################
################################################################################
units           real
atom_style      full
pair_style      lj/cut/coul/long 12.0  12.0
kspace_style    pppm 1e-4
bond_style      harmonic
angle_style     harmonic
dihedral_style  fourier
improper_style  cvff
special_bonds   amber
pair_modify     mix arithmetic
read_data       temp.lmps
  orthogonal box = (-173.136 -173.136 -173.136) to (173.136 173.136 173.136)
  reading atoms ...
  2030 atoms
  reading velocities ...
  2030 velocities
  scanning bonds ...
  scanning angles ...
  scanning dihedrals ...
  scanning impropers ...
  reading bonds ...
  2317 bonds
  reading angles ...
  4836 angles
  reading dihedrals ...
  8790 dihedrals
  reading impropers ...
  124 impropers
################################################################################

min_style cg
minimize 1e-06 1e-06 1000000 10000000
PPPM initialization ...
  G vector (1/distance) = 0.140997
  grid = 54 54 54
  stencil order = 5
  estimated absolute RMS force accuracy = 0.00133812
  estimated relative force accuracy = 4.02971e-06
  3d grid and FFT values/proc = 205379 157464
  update every 1 steps, delay 0 steps, check yes
Step Temp E_pair E_mol TotEng Press
0    378.44719    11621.876    15386.738    29297.486    64.028623
Loop time of 51.6353 on 1 procs for 490 steps with 2030 atoms

Minimization stats:
  Stopping criterion = energy tolerance
  Energy initial, next-to-last, final =
  Force two-norm initial, final = 177416 15.2843
  Force max component initial, final = 120242 1.35809
  Final line search alpha, max atom move = 0.00504531 0.00685196
  Iterations, force evaluations = 490 975

write_dump all custom pysimm.dump.tmp id q x y z vx vy vz
quit

################################################################################
##################################    Init    ##################################
################################################################################
units           real
atom_style      full
pair_style      lj/cut/coul/long 12.0  12.0
kspace_style    pppm 1e-4
bond_style      harmonic
angle_style     harmonic
dihedral_style  fourier
improper_style  cvff
special_bonds   amber
pair_modify     mix arithmetic
read_data       temp.lmps
  orthogonal box = (-175.038 -175.038 -175.038) to (175.038 175.038 175.038)
  reading atoms ...
  2096 atoms
  reading velocities ...
  2096 velocities
  scanning bonds ...
  scanning angles ...
  scanning dihedrals ...
  scanning impropers ...
  reading bonds ...
  2392 bonds
  reading angles ...
  4992 angles
  reading dihedrals ...
  9072 dihedrals
  reading impropers ...
  128 impropers
################################################################################

min_style cg
minimize 1e-06 1e-06 1000000 10000000
PPPM initialization ...
  G vector (1/distance) = 0.148491
  grid = 60 60 60
  stencil order = 5
  estimated absolute RMS force accuracy = 0.00097386
  estimated relative force accuracy = 2.93275e-06
  3d grid and FFT values/proc = 274625 216000
  update every 1 steps, delay 0 steps, check yes
Step Temp E_pair E_mol TotEng Press
0     444.3563    3877.5665    16012.508    22664.989    12.555493
Loop time of 114.483 on 1 procs for 824 steps with 2096 atoms

Minimization stats:
  Stopping criterion = energy tolerance
  Energy initial, next-to-last, final =
  Force two-norm initial, final = 31468.9 10.2716
  Force max component initial, final = 12709.1 1.62413
  Final line search alpha, max atom move = 0.00703648 0.0114282
  Iterations, force evaluations = 824 1644

write_dump all custom pysimm.dump.tmp id q x y z vx vy vz
quit

################################################################################
##################################    Init    ##################################
################################################################################
units           real
atom_style      full
pair_style      lj/cut/coul/long 12.0  12.0
kspace_style    pppm 1e-4
bond_style      harmonic
angle_style     harmonic
dihedral_style  fourier
improper_style  cvff
special_bonds   amber
pair_modify     mix arithmetic
read_data       temp.lmps
  orthogonal box = (-176.901 -176.901 -176.901) to (176.901 176.901 176.901)
  reading atoms ...
  2162 atoms
  reading velocities ...
  2162 velocities
  scanning bonds ...
  scanning angles ...
  scanning dihedrals ...
  scanning impropers ...
  reading bonds ...
  2467 bonds
  reading angles ...
  5148 angles
  reading dihedrals ...
  9354 dihedrals
  reading impropers ...
  132 impropers
################################################################################

min_style cg
minimize 1e-06 1e-06 1000000 10000000
PPPM initialization ...
  G vector (1/distance) = 0.14764
  grid = 60 60 60
  stencil order = 5
  estimated absolute RMS force accuracy = 0.00100929
  estimated relative force accuracy = 3.03945e-06
  3d grid and FFT values/proc = 274625 216000
  update every 1 steps, delay 0 steps, check yes
Step Temp E_pair E_mol TotEng Press
0     412.8381    936.73354    16620.903    20216.946   -6.5173447
Loop time of 117.847 on 1 procs for 820 steps with 2162 atoms

Minimization stats:
  Stopping criterion = linesearch alpha is zero
  Energy initial, next-to-last, final =
  Force two-norm initial, final = 4920.29 10.9075
  Force max component initial, final = 2083.86 1.57135
  Final line search alpha, max atom move = 7.75962e-11 1.21931e-10
  Iterations, force evaluations = 820 1689

write_dump all custom pysimm.dump.tmp id q x y z vx vy vz
quit

################################################################################
##################################    Init    ##################################
################################################################################
units           real
atom_style      full
pair_style      lj/cut/coul/long 12.0  12.0
kspace_style    pppm 1e-4
bond_style      harmonic
angle_style     harmonic
dihedral_style  fourier
improper_style  cvff
special_bonds   amber
pair_modify     mix arithmetic
read_data       temp.lmps
  orthogonal box = (-178.724 -178.724 -178.724) to (178.724 178.724 178.724)
  reading atoms ...
  2228 atoms
  reading velocities ...
  2228 velocities
  scanning bonds ...
  scanning angles ...
  scanning dihedrals ...
  scanning impropers ...
  reading bonds ...
  2542 bonds
  reading angles ...
  5304 angles
  reading dihedrals ...
  9636 dihedrals
  reading impropers ...
  136 impropers
################################################################################

min_style cg
minimize 1e-06 1e-06 1000000 10000000
PPPM initialization ...
  G vector (1/distance) = 0.146817
  grid = 60 60 60
  stencil order = 5
  estimated absolute RMS force accuracy = 0.00104467
  estimated relative force accuracy = 3.14598e-06
  3d grid and FFT values/proc = 274625 216000
  update every 1 steps, delay 0 steps, check yes
Step Temp E_pair E_mol TotEng Press
0    358.81375    6673.5728    16880.315    25935.788    27.263464
Loop time of 77.9578 on 1 procs for 556 steps with 2228 atoms

Minimization stats:
  Stopping criterion = energy tolerance
  Energy initial, next-to-last, final =
  Force two-norm initial, final = 65257.1 10.0572
  Force max component initial, final = 42227.7 0.86209
  Final line search alpha, max atom move = 0.0104635 0.00902053
  Iterations, force evaluations = 556 1107

write_dump all custom pysimm.dump.tmp id q x y z vx vy vz
quit

################################################################################
##################################    Init    ##################################
################################################################################
units           real
atom_style      full
pair_style      lj/cut/coul/long 12.0  12.0
kspace_style    pppm 1e-4
bond_style      harmonic
angle_style     harmonic
dihedral_style  fourier
improper_style  cvff
special_bonds   amber
pair_modify     mix arithmetic
read_data       temp.lmps
  orthogonal box = (-180.512 -180.512 -180.512) to (180.512 180.512 180.512)
  reading atoms ...
  2294 atoms
  reading velocities ...
  2294 velocities
  scanning bonds ...
  scanning angles ...
  scanning dihedrals ...
  scanning impropers ...
  reading bonds ...
  2617 bonds
  reading angles ...
  5460 angles
  reading dihedrals ...
  9918 dihedrals
  reading impropers ...
  140 impropers
################################################################################

min_style cg
minimize 1e-06 1e-06 1000000 10000000
PPPM initialization ...
  G vector (1/distance) = 0.14602
  grid = 60 60 60
  stencil order = 5
  estimated absolute RMS force accuracy = 0.00107998
  estimated relative force accuracy = 3.25232e-06
  3d grid and FFT values/proc = 274625 216000
  update every 1 steps, delay 0 steps, check yes
Step Temp E_pair E_mol TotEng Press
0    401.30601    8378.9978    17441.675    28563.598    36.054703
Loop time of 62.4369 on 1 procs for 438 steps with 2294 atoms

Minimization stats:
  Stopping criterion = energy tolerance
  Energy initial, next-to-last, final =
  Force two-norm initial, final = 120386 14.1292
  Force max component initial, final = 74336.1 1.74144
  Final line search alpha, max atom move = 0.00715973 0.0124682
  Iterations, force evaluations = 438 872

write_dump all custom pysimm.dump.tmp id q x y z vx vy vz
quit

################################################################################
##################################    Init    ##################################
################################################################################
units           real
atom_style      full
pair_style      lj/cut/coul/long 12.0  12.0
kspace_style    pppm 1e-4
bond_style      harmonic
angle_style     harmonic
dihedral_style  fourier
improper_style  cvff
special_bonds   amber
pair_modify     mix arithmetic
read_data       temp.lmps
  orthogonal box = (-182.264 -182.264 -182.264) to (182.264 182.264 182.264)
  reading atoms ...
  2360 atoms
  reading velocities ...
  2360 velocities
  scanning bonds ...
  scanning angles ...
  scanning dihedrals ...
  scanning impropers ...
  reading bonds ...
  2692 bonds
  reading angles ...
  5616 angles
  reading dihedrals ...
  10200 dihedrals
  reading impropers ...
  144 impropers
################################################################################

min_style cg
minimize 1e-06 1e-06 1000000 10000000
PPPM initialization ...
  G vector (1/distance) = 0.145248
  grid = 60 60 60
  stencil order = 5
  estimated absolute RMS force accuracy = 0.00111523
  estimated relative force accuracy = 3.35848e-06
  3d grid and FFT values/proc = 274625 216000
  update every 1 steps, delay 0 steps, check yes
Step Temp E_pair E_mol TotEng Press
0    384.24766    2595.1781    18049.143    23346.248    2.3032253
Loop time of 107.458 on 1 procs for 726 steps with 2360 atoms

Minimization stats:
  Stopping criterion = linesearch alpha is zero
  Energy initial, next-to-last, final =
  Force two-norm initial, final = 13238.8 12.2794
  Force max component initial, final = 5921.89 1.9329
  Final line search alpha, max atom move = 7.28235e-11 1.4076e-10
  Iterations, force evaluations = 726 1498

write_dump all custom pysimm.dump.tmp id q x y z vx vy vz
quit

################################################################################
##################################    Init    ##################################
################################################################################
units           real
atom_style      full
pair_style      lj/cut/coul/long 12.0  12.0
kspace_style    pppm 1e-4
bond_style      harmonic
angle_style     harmonic
dihedral_style  fourier
improper_style  cvff
special_bonds   amber
pair_modify     mix arithmetic
read_data       temp.lmps
  orthogonal box = (-183.984 -183.984 -183.984) to (183.984 183.984 183.984)
  reading atoms ...
  2426 atoms
  reading velocities ...
  2426 velocities
  scanning bonds ...
  scanning angles ...
  scanning dihedrals ...
  scanning impropers ...
  reading bonds ...
  2767 bonds
  reading angles ...
  5772 angles
  reading dihedrals ...
  10482 dihedrals
  reading impropers ...
  148 impropers
################################################################################

min_style cg
minimize 1e-06 1e-06 1000000 10000000
PPPM initialization ...
  G vector (1/distance) = 0.1445
  grid = 60 60 60
  stencil order = 5
  estimated absolute RMS force accuracy = 0.00115042
  estimated relative force accuracy = 3.46445e-06
  3d grid and FFT values/proc = 274625 216000
  update every 1 steps, delay 0 steps, check yes
Step Temp E_pair E_mol TotEng Press
0    407.86819    8464.7609    18638.019    30051.041    34.100552
Loop time of 132.411 on 1 procs for 901 steps with 2426 atoms

Minimization stats:
  Stopping criterion = energy tolerance
  Energy initial, next-to-last, final =
  Force two-norm initial, final = 131060 14.7715
  Force max component initial, final = 92109.6 2.38348
  Final line search alpha, max atom move = 0.00517781 0.0123412
  Iterations, force evaluations = 901 1797

write_dump all custom pysimm.dump.tmp id q x y z vx vy vz
quit

################################################################################
##################################    Init    ##################################
################################################################################
units           real
atom_style      full
pair_style      lj/cut/coul/long 12.0  12.0
kspace_style    pppm 1e-4
bond_style      harmonic
angle_style     harmonic
dihedral_style  fourier
improper_style  cvff
special_bonds   amber
pair_modify     mix arithmetic
read_data       temp.lmps
  orthogonal box = (-185.672 -185.672 -185.672) to (185.672 185.672 185.672)
  reading atoms ...
  2492 atoms
  reading velocities ...
  2492 velocities
  scanning bonds ...
  scanning angles ...
  scanning dihedrals ...
  scanning impropers ...
  reading bonds ...
  2842 bonds
  reading angles ...
  5928 angles
  reading dihedrals ...
  10764 dihedrals
  reading impropers ...
  152 impropers
################################################################################

min_style cg
minimize 1e-06 1e-06 1000000 10000000
PPPM initialization ...
  G vector (1/distance) = 0.143775
  grid = 60 60 60
  stencil order = 5
  estimated absolute RMS force accuracy = 0.00118554
  estimated relative force accuracy = 3.57023e-06
  3d grid and FFT values/proc = 274625 216000
  update every 1 steps, delay 0 steps, check yes
Step Temp E_pair E_mol TotEng Press
0    355.99608    1852.7897    19052.333    23548.464   -3.5128879
Loop time of 84.1004 on 1 procs for 564 steps with 2492 atoms

Minimization stats:
  Stopping criterion = energy tolerance
  Energy initial, next-to-last, final =
  Force two-norm initial, final = 9698.87 11.4685
  Force max component initial, final = 3849.64 1.69684
  Final line search alpha, max atom move = 0.00811628 0.013772
  Iterations, force evaluations = 564 1124

write_dump all custom pysimm.dump.tmp id q x y z vx vy vz
quit

################################################################################
##################################    Init    ##################################
################################################################################
units           real
atom_style      full
pair_style      lj/cut/coul/long 12.0  12.0
kspace_style    pppm 1e-4
bond_style      harmonic
angle_style     harmonic
dihedral_style  fourier
improper_style  cvff
special_bonds   amber
pair_modify     mix arithmetic
read_data       temp.lmps
  orthogonal box = (-187.33 -187.33 -187.33) to (187.33 187.33 187.33)
  reading atoms ...
  2558 atoms
  reading velocities ...
  2558 velocities
  scanning bonds ...
  scanning angles ...
  scanning dihedrals ...
  scanning impropers ...
  reading bonds ...
  2917 bonds
  reading angles ...
  6084 angles
  reading dihedrals ...
  11046 dihedrals
  reading impropers ...
  156 impropers
################################################################################

min_style cg
minimize 1e-06 1e-06 1000000 10000000
PPPM initialization ...
  G vector (1/distance) = 0.143072
  grid = 60 60 60
  stencil order = 5
  estimated absolute RMS force accuracy = 0.00122062
  estimated relative force accuracy = 3.67585e-06
  3d grid and FFT values/proc = 274625 216000
  update every 1 steps, delay 0 steps, check yes
Step Temp E_pair E_mol TotEng Press
0    336.36044    2799.2746    19397.703    24760.694    1.4824766
Loop time of 91.4056 on 1 procs for 594 steps with 2558 atoms

Minimization stats:
  Stopping criterion = energy tolerance
  Energy initial, next-to-last, final =
  Force two-norm initial, final = 18986.1 14.2204
  Force max component initial, final = 9644.53 2.0326
  Final line search alpha, max atom move = 0.00571083 0.0116078
  Iterations, force evaluations = 594 1183

write_dump all custom pysimm.dump.tmp id q x y z vx vy vz
quit

################################################################################
##################################    Init    ##################################
################################################################################
units           real
atom_style      full
pair_style      lj/cut/coul/long 12.0  12.0
kspace_style    pppm 1e-4
bond_style      harmonic
angle_style     harmonic
dihedral_style  fourier
improper_style  cvff
special_bonds   amber
pair_modify     mix arithmetic
read_data       temp.lmps
  orthogonal box = (-188.959 -188.959 -188.959) to (188.959 188.959 188.959)
  reading atoms ...
  2624 atoms
  reading velocities ...
  2624 velocities
  scanning bonds ...
  scanning angles ...
  scanning dihedrals ...
  scanning impropers ...
  reading bonds ...
  2992 bonds
  reading angles ...
  6240 angles
  reading dihedrals ...
  11328 dihedrals
  reading impropers ...
  160 impropers
################################################################################

min_style cg
minimize 1e-06 1e-06 1000000 10000000
PPPM initialization ...
  G vector (1/distance) = 0.142391
  grid = 60 60 60
  stencil order = 5
  estimated absolute RMS force accuracy = 0.00125563
  estimated relative force accuracy = 3.78131e-06
  3d grid and FFT values/proc = 274625 216000
  update every 1 steps, delay 0 steps, check yes
Step Temp E_pair E_mol TotEng Press
0    331.24106    2265.8487    20037.267    24892.979   -1.7900963
Loop time of 96.555 on 1 procs for 630 steps with 2624 atoms

Minimization stats:
  Stopping criterion = energy tolerance
  Energy initial, next-to-last, final =
  Force two-norm initial, final = 18012.2 15.5235
  Force max component initial, final = 10545.9 2.96635
  Final line search alpha, max atom move = 0.00633426 0.0187896
  Iterations, force evaluations = 630 1256

write_dump all custom pysimm.dump.tmp id q x y z vx vy vz
quit

################################################################################
##################################    Init    ##################################
################################################################################
units           real
atom_style      full
pair_style      lj/cut/coul/long 12.0  12.0
kspace_style    pppm 1e-4
bond_style      harmonic
angle_style     harmonic
dihedral_style  fourier
improper_style  cvff
special_bonds   amber
pair_modify     mix arithmetic
read_data       temp.lmps
  orthogonal box = (-190.56 -190.56 -190.56) to (190.56 190.56 190.56)
  reading atoms ...
  2690 atoms
  reading velocities ...
  2690 velocities
  scanning bonds ...
  scanning angles ...
  scanning dihedrals ...
  scanning impropers ...
  reading bonds ...
  3067 bonds
  reading angles ...
  6396 angles
  reading dihedrals ...
  11610 dihedrals
  reading impropers ...
  164 impropers
################################################################################

min_style cg
minimize 1e-06 1e-06 1000000 10000000
PPPM initialization ...
  G vector (1/distance) = 0.141731
  grid = 60 60 60
  stencil order = 5
  estimated absolute RMS force accuracy = 0.00129061
  estimated relative force accuracy = 3.88664e-06
  3d grid and FFT values/proc = 274625 216000
  update every 1 steps, delay 0 steps, check yes
Step Temp E_pair E_mol TotEng Press
0    282.35208    2710.9105    20434.432    25408.507  -0.18392701
Loop time of 68.4852 on 1 procs for 445 steps with 2690 atoms

Minimization stats:
  Stopping criterion = energy tolerance
  Energy initial, next-to-last, final =
  Force two-norm initial, final = 11018.2 15.8478
  Force max component initial, final = 3748.38 2.11472
  Final line search alpha, max atom move = 0.00562797 0.0119016
  Iterations, force evaluations = 445 886

write_dump all custom pysimm.dump.tmp id q x y z vx vy vz
quit

################################################################################
##################################    Init    ##################################
################################################################################
units           real
atom_style      full
pair_style      lj/cut/coul/long 12.0  12.0
kspace_style    pppm 1e-4
bond_style      harmonic
angle_style     harmonic
dihedral_style  fourier
improper_style  cvff
special_bonds   amber
pair_modify     mix arithmetic
read_data       temp.lmps
  orthogonal box = (-192.135 -192.135 -192.135) to (192.135 192.135 192.135)
  reading atoms ...
  2756 atoms
  reading velocities ...
  2756 velocities
  scanning bonds ...
  scanning angles ...
  scanning dihedrals ...
  scanning impropers ...
  reading bonds ...
  3142 bonds
  reading angles ...
  6552 angles
  reading dihedrals ...
  11892 dihedrals
  reading impropers ...
  168 impropers
################################################################################

min_style cg
minimize 1e-06 1e-06 1000000 10000000
PPPM initialization ...
  G vector (1/distance) = 0.141092
  grid = 60 60 60
  stencil order = 5
  estimated absolute RMS force accuracy = 0.00132555
  estimated relative force accuracy = 3.99187e-06
  3d grid and FFT values/proc = 274625 216000
  update every 1 steps, delay 0 steps, check yes
Step Temp E_pair E_mol TotEng Press
0    265.22096    2916.0979    20985.187    26079.315   0.38422646
Loop time of 101.746 on 1 procs for 654 steps with 2756 atoms

Minimization stats:
  Stopping criterion = energy tolerance
  Energy initial, next-to-last, final =
  Force two-norm initial, final = 28084.4 12.7375
  Force max component initial, final = 19505.1 1.23396
  Final line search alpha, max atom move = 0.00480685 0.00593146
  Iterations, force evaluations = 654 1297

write_dump all custom pysimm.dump.tmp id q x y z vx vy vz
quit

################################################################################
##################################    Init    ##################################
################################################################################
units           real
atom_style      full
pair_style      lj/cut/coul/long 12.0  12.0
kspace_style    pppm 1e-4
bond_style      harmonic
angle_style     harmonic
dihedral_style  fourier
improper_style  cvff
special_bonds   amber
pair_modify     mix arithmetic
read_data       temp.lmps
  orthogonal box = (-193.685 -193.685 -193.685) to (193.685 193.685 193.685)
  reading atoms ...
  2822 atoms
  reading velocities ...
  2822 velocities
  scanning bonds ...
  scanning angles ...
  scanning dihedrals ...
  scanning impropers ...
  reading bonds ...
  3217 bonds
  reading angles ...
  6708 angles
  reading dihedrals ...
  12174 dihedrals
  reading impropers ...
  172 impropers
################################################################################

min_style cg
minimize 1e-06 1e-06 1000000 10000000
PPPM initialization ...
  G vector (1/distance) = 0.145548
  grid = 64 64 64
  stencil order = 5
  estimated absolute RMS force accuracy = 0.00109801
  estimated relative force accuracy = 3.30662e-06
  3d grid and FFT values/proc = 328509 262144
  update every 1 steps, delay 0 steps, check yes
Step Temp E_pair E_mol TotEng Press
0    277.18657    2426.9767    21375.046    26132.847   -1.8259069
Loop time of 92.1393 on 1 procs for 490 steps with 2822 atoms

Minimization stats:
  Stopping criterion = energy tolerance
  Energy initial, next-to-last, final =
  Force two-norm initial, final = 14508.1 13.2514
  Force max component initial, final = 7172.57 1.64121
  Final line search alpha, max atom move = 0.00653506 0.0107254
  Iterations, force evaluations = 490 976

write_dump all custom pysimm.dump.tmp id q x y z vx vy vz
quit

################################################################################
##################################    Init    ##################################
################################################################################
units           real
atom_style      full
pair_style      lj/cut/coul/long 12.0  12.0
kspace_style    pppm 1e-4
bond_style      harmonic
angle_style     harmonic
dihedral_style  fourier
improper_style  cvff
special_bonds   amber
pair_modify     mix arithmetic
read_data       temp.lmps
  orthogonal box = (-195.21 -195.21 -195.21) to (195.21 195.21 195.21)
  reading atoms ...
  2888 atoms
  reading velocities ...
  2888 velocities
  scanning bonds ...
  scanning angles ...
  scanning dihedrals ...
  scanning impropers ...
  reading bonds ...
  3292 bonds
  reading angles ...
  6864 angles
  reading dihedrals ...
  12456 dihedrals
  reading impropers ...
  176 impropers
################################################################################

min_style cg
minimize 1e-06 1e-06 1000000 10000000
PPPM initialization ...
  G vector (1/distance) = 0.144923
  grid = 64 64 64
  stencil order = 5
  estimated absolute RMS force accuracy = 0.00112702
  estimated relative force accuracy = 3.39398e-06
  3d grid and FFT values/proc = 328509 262144
  update every 1 steps, delay 0 steps, check yes
Step Temp E_pair E_mol TotEng Press
0    281.00416    4558.6078    21976.477    28953.294    7.3471201
Loop time of 138.304 on 1 procs for 699 steps with 2888 atoms

Minimization stats:
  Stopping criterion = linesearch alpha is zero
  Energy initial, next-to-last, final =
  Force two-norm initial, final = 42242.3 14.6264
  Force max component initial, final = 28432 1.72063
  Final line search alpha, max atom move = 3.07377e-11 5.28881e-11
  Iterations, force evaluations = 699 1446

write_dump all custom pysimm.dump.tmp id q x y z vx vy vz
quit

################################################################################
##################################    Init    ##################################
################################################################################
units           real
atom_style      full
pair_style      lj/cut/coul/long 12.0  12.0
kspace_style    pppm 1e-4
bond_style      harmonic
angle_style     harmonic
dihedral_style  fourier
improper_style  cvff
special_bonds   amber
pair_modify     mix arithmetic
read_data       temp.lmps
  orthogonal box = (-196.712 -196.712 -196.712) to (196.712 196.712 196.712)
  reading atoms ...
  2954 atoms
  reading velocities ...
  2954 velocities
  scanning bonds ...
  scanning angles ...
  scanning dihedrals ...
  scanning impropers ...
  reading bonds ...
  3367 bonds
  reading angles ...
  7020 angles
  reading dihedrals ...
  12738 dihedrals
  reading impropers ...
  180 impropers
################################################################################

min_style cg
minimize 1e-06 1e-06 1000000 10000000
PPPM initialization ...
  G vector (1/distance) = 0.144313
  grid = 64 64 64
  stencil order = 5
  estimated absolute RMS force accuracy = 0.00115598
  estimated relative force accuracy = 3.48121e-06
  3d grid and FFT values/proc = 328509 262144
  update every 1 steps, delay 0 steps, check yes
Step Temp E_pair E_mol TotEng Press
0    285.23543     6681.529    22395.179    31587.445    16.496294
Loop time of 107.248 on 1 procs for 482 steps with 2954 atoms

Minimization stats:
  Stopping criterion = energy tolerance
  Energy initial, next-to-last, final =
  Force two-norm initial, final = 66853.5 14.6287
  Force max component initial, final = 36722.4 2.35742
  Final line search alpha, max atom move = 0.00662666 0.0156219
  Iterations, force evaluations = 482 959

write_dump all custom pysimm.dump.tmp id q x y z vx vy vz
quit

################################################################################
##################################    Init    ##################################
################################################################################
units           real
atom_style      full
pair_style      lj/cut/coul/long 12.0  12.0
kspace_style    pppm 1e-4
bond_style      harmonic
angle_style     harmonic
dihedral_style  fourier
improper_style  cvff
special_bonds   amber
pair_modify     mix arithmetic
read_data       temp.lmps
  orthogonal box = (-198.191 -198.191 -198.191) to (198.191 198.191 198.191)
  reading atoms ...
  3020 atoms
  reading velocities ...
  3020 velocities
  scanning bonds ...
  scanning angles ...
  scanning dihedrals ...
  scanning impropers ...
  reading bonds ...
  3442 bonds
  reading angles ...
  7176 angles
  reading dihedrals ...
  13020 dihedrals
  reading impropers ...
  184 impropers
################################################################################

min_style cg
minimize 1e-06 1e-06 1000000 10000000
PPPM initialization ...
  G vector (1/distance) = 0.143718
  grid = 64 64 64
  stencil order = 5
  estimated absolute RMS force accuracy = 0.00118491
  estimated relative force accuracy = 3.56832e-06
  3d grid and FFT values/proc = 328509 262144
  update every 1 steps, delay 0 steps, check yes
Step Temp E_pair E_mol TotEng Press
0     256.6282    4097.5702    22908.612    29315.596    4.2924842
Loop time of 111.457 on 1 procs for 478 steps with 3020 atoms

Minimization stats:
  Stopping criterion = linesearch alpha is zero
  Energy initial, next-to-last, final =
  Force two-norm initial, final = 22542.1 15.4973
  Force max component initial, final = 11539.8 1.33858
  Final line search alpha, max atom move = 3.54957e-11 4.75138e-11
  Iterations, force evaluations = 478 1004

write_dump all custom pysimm.dump.tmp id q x y z vx vy vz
quit

################################################################################
##################################    Init    ##################################
################################################################################
units           real
atom_style      full
pair_style      lj/cut/coul/long 12.0  12.0
kspace_style    pppm 1e-4
bond_style      harmonic
angle_style     harmonic
dihedral_style  fourier
improper_style  cvff
special_bonds   amber
pair_modify     mix arithmetic
read_data       temp.lmps
  orthogonal box = (-199.648 -199.648 -199.648) to (199.648 199.648 199.648)
  reading atoms ...
  3086 atoms
  reading velocities ...
  3086 velocities
  scanning bonds ...
  scanning angles ...
  scanning dihedrals ...
  scanning impropers ...
  reading bonds ...
  3517 bonds
  reading angles ...
  7332 angles
  reading dihedrals ...
  13302 dihedrals
  reading impropers ...
  188 impropers
################################################################################

min_style cg
minimize 1e-06 1e-06 1000000 10000000
PPPM initialization ...
  G vector (1/distance) = 0.143139
  grid = 64 64 64
  stencil order = 5
  estimated absolute RMS force accuracy = 0.0012138
  estimated relative force accuracy = 3.65531e-06
  3d grid and FFT values/proc = 328509 262144
  update every 1 steps, delay 0 steps, check yes
Step Temp E_pair E_mol TotEng Press
0    322.97213    7972.0571     23403.69    34345.734    20.585809
Loop time of 82.0734 on 1 procs for 430 steps with 3086 atoms

Minimization stats:
  Stopping criterion = energy tolerance
  Energy initial, next-to-last, final =
  Force two-norm initial, final = 53992.6 14.0524
  Force max component initial, final = 25781.2 2.133
  Final line search alpha, max atom move = 0.00788742 0.0168238
  Iterations, force evaluations = 430 854

write_dump all custom pysimm.dump.tmp id q x y z vx vy vz
quit

################################################################################
##################################    Init    ##################################
################################################################################
units           real
atom_style      full
pair_style      lj/cut/coul/long 12.0  12.0
kspace_style    pppm 1e-4
bond_style      harmonic
angle_style     harmonic
dihedral_style  fourier
improper_style  cvff
special_bonds   amber
pair_modify     mix arithmetic
read_data       temp.lmps
  orthogonal box = (-201.084 -201.084 -201.084) to (201.084 201.084 201.084)
  reading atoms ...
  3152 atoms
  reading velocities ...
  3152 velocities
  scanning bonds ...
  scanning angles ...
  scanning dihedrals ...
  scanning impropers ...
  reading bonds ...
  3592 bonds
  reading angles ...
  7488 angles
  reading dihedrals ...
  13584 dihedrals
  reading impropers ...
  192 impropers
################################################################################

min_style cg
minimize 1e-06 1e-06 1000000 10000000
PPPM initialization ...
  G vector (1/distance) = 0.142575
  grid = 64 64 64
  stencil order = 5
  estimated absolute RMS force accuracy = 0.00124265
  estimated relative force accuracy = 3.74221e-06
  3d grid and FFT values/proc = 328509 262144
  update every 1 steps, delay 0 steps, check yes
Loop time of 110.593 on 1 procs for 544 steps with 3152 atoms

Minimization stats:
  Stopping criterion = linesearch alpha is zero
  Energy initial, next-to-last, final =
  Force two-norm initial, final = 28023.1 15.9496
  Force max component initial, final = 10916.3 1.73685
  Final line search alpha, max atom move = 4.61563e-11 8.01665e-11
  Iterations, force evaluations = 544 1134

write_dump all custom pysimm.dump.tmp id q x y z vx vy vz
quit

################################################################################
##################################    Init    ##################################
################################################################################
units           real
atom_style      full
pair_style      lj/cut/coul/long 12.0  12.0
kspace_style    pppm 1e-4
bond_style      harmonic
angle_style     harmonic
dihedral_style  fourier
improper_style  cvff
special_bonds   amber
pair_modify     mix arithmetic
read_data       temp.lmps
  orthogonal box = (-202.501 -202.501 -202.501) to (202.501 202.501 202.501)
  reading atoms ...
  3218 atoms
  reading velocities ...
  3218 velocities
  scanning bonds ...
  scanning angles ...
  scanning dihedrals ...
  scanning impropers ...
  reading bonds ...
  3667 bonds
  reading angles ...
  7644 angles
  reading dihedrals ...
  13866 dihedrals
  reading impropers ...
  196 impropers
################################################################################

min_style cg
minimize 1e-06 1e-06 1000000 10000000
PPPM initialization ...
  G vector (1/distance) = 0.142025
  grid = 64 64 64
  stencil order = 5
  estimated absolute RMS force accuracy = 0.00127148
  estimated relative force accuracy = 3.82901e-06
  3d grid and FFT values/proc = 328509 262144
  update every 1 steps, delay 0 steps, check yes
Loop time of 123.311 on 1 procs for 597 steps with 3218 atoms

Minimization stats:
  Stopping criterion = linesearch alpha is zero
  Energy initial, next-to-last, final =
  Force two-norm initial, final = 16490.7 16.4386
  Force max component initial, final = 8908.59 1.93836
  Final line search alpha, max atom move = 3.66709e-11 7.10814e-11
  Iterations, force evaluations = 597 1242

write_dump all custom pysimm.dump.tmp id q x y z vx vy vz
quit

################################################################################
##################################    Init    ##################################
################################################################################
units           real
atom_style      full
pair_style      lj/cut/coul/long 12.0  12.0
kspace_style    pppm 1e-4
bond_style      harmonic
angle_style     harmonic
dihedral_style  fourier
improper_style  cvff
special_bonds   amber
pair_modify     mix arithmetic
read_data       temp.lmps
  orthogonal box = (-203.897 -203.897 -203.897) to (203.897 203.897 203.897)
  reading atoms ...
  3284 atoms
  reading velocities ...
  3284 velocities
  scanning bonds ...
  scanning angles ...
  scanning dihedrals ...
  scanning impropers ...
  reading bonds ...
  3742 bonds
  reading angles ...
  7800 angles
  reading dihedrals ...
  14148 dihedrals
  reading impropers ...
  200 impropers
################################################################################

min_style cg
minimize 1e-06 1e-06 1000000 10000000
PPPM initialization ...
  G vector (1/distance) = 0.141489
  grid = 64 64 64
  stencil order = 5
  estimated absolute RMS force accuracy = 0.00130027
  estimated relative force accuracy = 3.91573e-06
  3d grid and FFT values/proc = 328509 262144
  update every 1 steps, delay 0 steps, check yes
Loop time of 111.357 on 1 procs for 541 steps with 3284 atoms

Minimization stats:
  Stopping criterion = linesearch alpha is zero
  Energy initial, next-to-last, final =
  Force two-norm initial, final = 38514.9 15.51
  Force max component initial, final = 13323.9 2.27337
  Final line search alpha, max atom move = 5.03987e-11 1.14575e-10
  Iterations, force evaluations = 541 1129

write_dump all custom pysimm.dump.tmp id q x y z vx vy vz
quit
