################################################################################
##################################    Init    ##################################
################################################################################
units           real
atom_style      full
pair_style      lj/cut/coul/long 12.0  12.0
kspace_style    pppm 1e-4
bond_style      harmonic
angle_style     harmonic
dihedral_style  fourier
improper_style  cvff
special_bonds   amber
pair_modify     mix arithmetic
read_data       temp.lmps
  orthogonal box = (-74.2718 -74.2718 -74.2718) to (74.2718 74.2718 74.2718)
  reading atoms ...
  289 atoms
  reading velocities ...
  289 velocities
  scanning bonds ...
  scanning angles ...
  scanning dihedrals ...
  reading bonds ...
  288 bonds
  reading angles ...
  540 angles
  reading dihedrals ...
  793 dihedrals
################################################################################

min_style cg
minimize 1e-05 1e-05 10000 100000
PPPM initialization ...
  G vector (1/distance) = 0.107204
  grid = 15 15 15
  stencil order = 5
  estimated absolute RMS force accuracy = 0.0256884
  estimated relative force accuracy = 7.73599e-05
  3d grid and FFT values/proc = 1521 256
  update every 1 steps, delay 0 steps, check yes
Step Temp E_pair E_mol TotEng Press
0    889.41921   -299.15817    105.26388    569.64835    9.6488118
Loop time of 0.0542446 on 16 procs for 3 steps with 289 atoms

Minimization stats:
  Stopping criterion = linesearch alpha is zero
  Energy initial, next-to-last, final =
  Force two-norm initial, final = 75.6111 24.6024
  Force max component initial, final = 41.0835 11.4351
  Final line search alpha, max atom move = 1.59562e-11 1.82461e-10
  Iterations, force evaluations = 3 75

timestep        1
fix             pysimm_md all nvt temp 300 300 100
run             5000
PPPM initialization ...
  G vector (1/distance) = 0.107204
  grid = 15 15 15
  stencil order = 5
  estimated absolute RMS force accuracy = 0.0256884
  estimated relative force accuracy = 7.73599e-05
  3d grid and FFT values/proc = 1521 256
Step Temp E_pair E_mol TotEng Press
3    889.41921   -299.14511    105.02263    569.42016    9.6711313
Loop time of 2.3215 on 16 procs for 5000 steps with 289 atoms

unfix pysimm_md
write_dump all custom pysimm.dump.tmp id q x y z vx vy vz
quit

################################################################################
##################################    Init    ##################################
################################################################################
units           real
atom_style      full
pair_style      lj/cut/coul/long 12.0  12.0
kspace_style    pppm 1e-4
bond_style      harmonic
angle_style     harmonic
dihedral_style  fourier
improper_style  cvff
special_bonds   amber
pair_modify     mix arithmetic
read_data       temp.lmps
  orthogonal box = (-51.0003 -51.0003 -51.0003) to (51.0003 51.0003 51.0003)
  reading atoms ...
  137 atoms
  reading velocities ...
  137 velocities
  scanning bonds ...
  scanning angles ...
  scanning dihedrals ...
  reading bonds ...
  136 bonds
  reading angles ...
  257 angles
  reading dihedrals ...
  338 dihedrals
################################################################################

min_style cg
minimize 1e-05 1e-05 10000 100000
PPPM initialization ...
  G vector (1/distance) = 0.0974587
  grid = 9 9 9
  stencil order = 5
  estimated absolute RMS force accuracy = 0.03223
  estimated relative force accuracy = 9.70598e-05
  3d grid and FFT values/proc = 800 81
  update every 1 steps, delay 0 steps, check yes
Step Temp E_pair E_mol TotEng Press
0    943.44854   -2.6586559    31.142645    410.94875    16.687926
Loop time of 0.0262801 on 16 procs for 6 steps with 137 atoms

Minimization stats:
  Stopping criterion = linesearch alpha is zero
  Energy initial, next-to-last, final =
  Force two-norm initial, final = 10.8445 8.87738
  Force max component initial, final = 2.36384 1.93613
  Final line search alpha, max atom move = 1.0333e-10 2.00061e-10
  Iterations, force evaluations = 6 66

timestep        1
fix             pysimm_md all nvt temp 300 300 100
run             5000
PPPM initialization ...
  G vector (1/distance) = 0.0974587
  grid = 9 9 9
  stencil order = 5
  estimated absolute RMS force accuracy = 0.03223
  estimated relative force accuracy = 9.70598e-05
  3d grid and FFT values/proc = 800 81
Step Temp E_pair E_mol TotEng Press
6    943.44854    -3.202443    31.039375    410.30169    16.813062
Loop time of 1.47286 on 16 procs for 5000 steps with 137 atoms

unfix pysimm_md
write_dump all custom pysimm.dump.tmp id q x y z vx vy vz
quit

################################################################################
##################################    Init    ##################################
################################################################################
units           real
atom_style      full
pair_style      lj/cut/coul/long 12.0  12.0
kspace_style    pppm 1e-4
bond_style      harmonic
angle_style     harmonic
dihedral_style  fourier
improper_style  cvff
special_bonds   amber
pair_modify     mix arithmetic
read_data       temp.lmps
  orthogonal box = (-52.5011 -52.5011 -52.5011) to (52.5011 52.5011 52.5011)
  reading atoms ...
  201 atoms
  reading velocities ...
  201 velocities
  scanning bonds ...
  scanning angles ...
  scanning dihedrals ...
  reading bonds ...
  200 bonds
  reading angles ...
  380 angles
  reading dihedrals ...
  528 dihedrals
################################################################################

min_style cg
minimize 1e-05 1e-05 10000 100000
PPPM initialization ...
  G vector (1/distance) = 0.10292
  grid = 10 10 10
  stencil order = 5
  estimated absolute RMS force accuracy = 0.0360335
  estimated relative force accuracy = 0.000108514
  3d grid and FFT values/proc = 800 90
  update every 1 steps, delay 0 steps, check yes
Step Temp E_pair E_mol TotEng Press
0    663.81965   -87.260499    78.327049     386.8106    13.055371
Loop time of 0.105819 on 16 procs for 44 steps with 201 atoms

Minimization stats:
  Stopping criterion = linesearch alpha is zero
  Energy initial, next-to-last, final =
  Force two-norm initial, final = 25.6775 17.5448
  Force max component initial, final = 5.82929 4.11987
  Final line search alpha, max atom move = 2.2589e-11 9.30638e-11
  Iterations, force evaluations = 44 143

timestep        1
fix             pysimm_md all nvt temp 300 300 100
run             5000
PPPM initialization ...
  G vector (1/distance) = 0.10292
  grid = 10 10 10
  stencil order = 5
  estimated absolute RMS force accuracy = 0.0360335
  estimated relative force accuracy = 0.000108514
  3d grid and FFT values/proc = 800 90
Step Temp E_pair E_mol TotEng Press
44    663.81965   -91.176814    68.487709    373.05495    13.189053
Loop time of 1.77567 on 16 procs for 5000 steps with 201 atoms

unfix pysimm_md
write_dump all custom pysimm.dump.tmp id q x y z vx vy vz
quit

################################################################################
##################################    Init    ##################################
################################################################################
units           real
atom_style      full
pair_style      lj/cut/coul/long 12.0  12.0
kspace_style    pppm 1e-4
bond_style      harmonic
angle_style     harmonic
dihedral_style  fourier
improper_style  cvff
special_bonds   amber
pair_modify     mix arithmetic
read_data       temp.lmps
  orthogonal box = (-81.0597 -81.0597 -81.0597) to (81.0597 81.0597 81.0597)
  reading atoms ...
  346 atoms
  reading velocities ...
  346 velocities
  scanning bonds ...
  scanning angles ...
  scanning dihedrals ...
  reading bonds ...
  345 bonds
  reading angles ...
  649 angles
  reading dihedrals ...
  948 dihedrals
################################################################################

min_style cg
minimize 1e-05 1e-05 10000 100000
PPPM initialization ...
  G vector (1/distance) = 0.100836
  grid = 15 15 15
  stencil order = 5
  estimated absolute RMS force accuracy = 0.0294029
  estimated relative force accuracy = 8.8546e-05
  3d grid and FFT values/proc = 1521 256
  update every 1 steps, delay 0 steps, check yes
Step Temp E_pair E_mol TotEng Press
0    1011.2166   -323.67052    168.16193    884.40584    10.625163
Loop time of 0.201834 on 16 procs for 55 steps with 346 atoms

Minimization stats:
  Stopping criterion = linesearch alpha is zero
  Energy initial, next-to-last, final =
  Force two-norm initial, final = 58.9905 33.373
  Force max component initial, final = 27.1566 7.81271
  Final line search alpha, max atom move = 1.07945e-11 8.43345e-11
  Iterations, force evaluations = 55 177

timestep        1
fix             pysimm_md all nvt temp 300 300 100
run             5000
PPPM initialization ...
  G vector (1/distance) = 0.100836
  grid = 15 15 15
  stencil order = 5
  estimated absolute RMS force accuracy = 0.0294029
  estimated relative force accuracy = 8.8546e-05
  3d grid and FFT values/proc = 1521 256
Step Temp E_pair E_mol TotEng Press
55    1011.2166   -341.26534    133.52572    832.17482    10.240234
Loop time of 2.78519 on 16 procs for 5000 steps with 346 atoms

unfix pysimm_md
write_dump all custom pysimm.dump.tmp id q x y z vx vy vz
quit

################################################################################
##################################    Init    ##################################
################################################################################
units           real
atom_style      full
pair_style      lj/cut/coul/long 12.0  12.0
kspace_style    pppm 1e-4
bond_style      harmonic
angle_style     harmonic
dihedral_style  fourier
improper_style  cvff
special_bonds   amber
pair_modify     mix arithmetic
read_data       temp.lmps
  orthogonal box = (-55.2694 -55.2694 -55.2694) to (55.2694 55.2694 55.2694)
  reading atoms ...
  275 atoms
  reading velocities ...
  275 velocities
  scanning bonds ...
  scanning angles ...
  scanning dihedrals ...
  reading bonds ...
  274 bonds
  reading angles ...
  518 angles
  reading dihedrals ...
  734 dihedrals
################################################################################

min_style cg
minimize 1e-05 1e-05 10000 100000
PPPM initialization ...
  G vector (1/distance) = 0.112604
  grid = 12 12 12
  stencil order = 5
  estimated absolute RMS force accuracy = 0.0302982
  estimated relative force accuracy = 9.12422e-05
  3d grid and FFT values/proc = 968 108
  update every 1 steps, delay 0 steps, check yes
Step Temp E_pair E_mol TotEng Press
0    858.32424   -212.72083    91.574799    579.88339    22.091472
Loop time of 0.0610918 on 16 procs for 17 steps with 275 atoms

Minimization stats:
  Stopping criterion = linesearch alpha is zero
  Energy initial, next-to-last, final =
  Force two-norm initial, final = 19.8962 15.0599
  Force max component initial, final = 4.73343 3.2458
  Final line search alpha, max atom move = 3.89075e-11 1.26286e-10
  Iterations, force evaluations = 17 89

timestep        1
fix             pysimm_md all nvt temp 300 300 100
run             5000
PPPM initialization ...
  G vector (1/distance) = 0.112604
  grid = 12 12 12
  stencil order = 5
  estimated absolute RMS force accuracy = 0.0302982
  estimated relative force accuracy = 9.12422e-05
  3d grid and FFT values/proc = 968 108
Step Temp E_pair E_mol TotEng Press
17    858.32424   -213.81959    89.602578     576.8124    21.989518
Loop time of 3.08784 on 16 procs for 5000 steps with 275 atoms

unfix pysimm_md
write_dump all custom pysimm.dump.tmp id q x y z vx vy vz
quit

################################################################################
##################################    Init    ##################################
################################################################################
units           real
atom_style      full
pair_style      lj/cut/coul/long 12.0  12.0
kspace_style    pppm 1e-4
bond_style      harmonic
angle_style     harmonic
dihedral_style  fourier
improper_style  cvff
special_bonds   amber
pair_modify     mix arithmetic
read_data       temp.lmps
  orthogonal box = (-85.02 -85.02 -85.02) to (85.02 85.02 85.02)
  reading atoms ...
  393 atoms
  reading velocities ...
  393 velocities
  scanning bonds ...
  scanning angles ...
  scanning dihedrals ...
  reading bonds ...
  392 bonds
  reading angles ...
  733 angles
  reading dihedrals ...
  1069 dihedrals
################################################################################

min_style cg
minimize 1e-05 1e-05 10000 100000
PPPM initialization ...
  G vector (1/distance) = 0.0974425
  grid = 15 15 15
  stencil order = 5
  estimated absolute RMS force accuracy = 0.0320464
  estimated relative force accuracy = 9.65068e-05
  3d grid and FFT values/proc = 1521 256
  update every 1 steps, delay 0 steps, check yes
Step Temp E_pair E_mol TotEng Press
0    859.53502   -405.56718     140.9823    739.76249     9.274033
Loop time of 0.0651216 on 16 procs for 6 steps with 393 atoms

Minimization stats:
  Stopping criterion = linesearch alpha is zero
  Energy initial, next-to-last, final =
  Force two-norm initial, final = 40.931 31.1417
  Force max component initial, final = 6.73608 9.23732
  Final line search alpha, max atom move = 7.65133e-12 7.06778e-11
  Iterations, force evaluations = 6 71

timestep        1
fix             pysimm_md all nvt temp 300 300 100
run             5000
PPPM initialization ...
  G vector (1/distance) = 0.0974425
  grid = 15 15 15
  stencil order = 5
  estimated absolute RMS force accuracy = 0.0320464
  estimated relative force accuracy = 9.65068e-05
  3d grid and FFT values/proc = 1521 256
Step Temp E_pair E_mol TotEng Press
6    859.53502   -406.19463    138.77538    736.92811    9.3040241
Loop time of 2.77414 on 16 procs for 5000 steps with 393 atoms

unfix pysimm_md
write_dump all custom pysimm.dump.tmp id q x y z vx vy vz
quit

################################################################################
##################################    Init    ##################################
################################################################################
units           real
atom_style      full
pair_style      lj/cut/coul/long 12.0  12.0
kspace_style    pppm 1e-4
bond_style      harmonic
angle_style     harmonic
dihedral_style  fourier
improper_style  cvff
special_bonds   amber
pair_modify     mix arithmetic
read_data       temp.lmps
  orthogonal box = (-86.8688 -86.8688 -86.8688) to (86.8688 86.8688 86.8688)
  reading atoms ...
  403 atoms
  reading velocities ...
  403 velocities
  scanning bonds ...
  scanning angles ...
  scanning dihedrals ...
  reading bonds ...
  402 bonds
  reading angles ...
  752 angles
  reading dihedrals ...
  1093 dihedrals
################################################################################

min_style cg
minimize 1e-05 1e-05 10000 100000
PPPM initialization ...
  G vector (1/distance) = 0.0959315
  grid = 15 15 15
  stencil order = 5
  estimated absolute RMS force accuracy = 0.0325228
  estimated relative force accuracy = 9.79415e-05
  3d grid and FFT values/proc = 1521 256
  update every 1 steps, delay 0 steps, check yes
Step Temp E_pair E_mol TotEng Press
0    403.34266    -405.2756    127.67272    205.71683    3.8639169
Loop time of 0.0519834 on 16 procs for 1 steps with 403 atoms

Minimization stats:
  Stopping criterion = linesearch alpha is zero
  Energy initial, next-to-last, final =
  Force two-norm initial, final = 36.4884 36.4884
  Force max component initial, final = 6.10206 6.10206
  Final line search alpha, max atom move = 7.63122e-12 4.65661e-11
  Iterations, force evaluations = 1 62

timestep        1
fix             pysimm_md all nvt temp 300 300 100
run             5000
PPPM initialization ...
  G vector (1/distance) = 0.0959315
  grid = 15 15 15
  stencil order = 5
  estimated absolute RMS force accuracy = 0.0325228
  estimated relative force accuracy = 9.79415e-05
  3d grid and FFT values/proc = 1521 256
Step Temp E_pair E_mol TotEng Press
1    403.34266    -405.2756    127.67272    205.71683    3.8639169
Loop time of 2.55494 on 16 procs for 5000 steps with 403 atoms

unfix pysimm_md
write_dump all custom pysimm.dump.tmp id q x y z vx vy vz
quit

################################################################################
##################################    Init    ##################################
################################################################################
units           real
atom_style      full
pair_style      lj/cut/coul/long 12.0  12.0
kspace_style    pppm 1e-4
bond_style      harmonic
angle_style     harmonic
dihedral_style  fourier
improper_style  cvff
special_bonds   amber
pair_modify     mix arithmetic
read_data       temp.lmps
  orthogonal box = (-58.9646 -58.9646 -58.9646) to (58.9646 58.9646 58.9646)
  reading atoms ...
  305 atoms
  reading velocities ...
  305 velocities
  scanning bonds ...
  scanning angles ...
  scanning dihedrals ...
  reading bonds ...
  304 bonds
  reading angles ...
  579 angles
  reading dihedrals ...
  814 dihedrals
################################################################################

min_style cg
minimize 1e-05 1e-05 10000 100000
PPPM initialization ...
  G vector (1/distance) = 0.107771
  grid = 12 12 12
  stencil order = 5
  estimated absolute RMS force accuracy = 0.0328964
  estimated relative force accuracy = 9.90664e-05
  3d grid and FFT values/proc = 968 108
  update every 1 steps, delay 0 steps, check yes
Step Temp E_pair E_mol TotEng Press
0    896.65314   -175.60758    111.96209    748.87133    19.822404
Loop time of 0.0505245 on 16 procs for 3 steps with 305 atoms

Minimization stats:
  Stopping criterion = linesearch alpha is zero
  Energy initial, next-to-last, final =
  Force two-norm initial, final = 26.6283 16.1186
  Force max component initial, final = 7.75109 2.29727
  Final line search alpha, max atom move = 2.80155e-11 6.4359e-11
  Iterations, force evaluations = 3 64

timestep        1
fix             pysimm_md all nvt temp 300 300 100
run             5000
PPPM initialization ...
  G vector (1/distance) = 0.107771
  grid = 12 12 12
  stencil order = 5
  estimated absolute RMS force accuracy = 0.0328964
  estimated relative force accuracy = 9.90664e-05
  3d grid and FFT values/proc = 968 108
Step Temp E_pair E_mol TotEng Press
3    896.65314   -175.56032    111.65373    748.61022     19.93247
Loop time of 1.81544 on 16 procs for 5000 steps with 305 atoms

unfix pysimm_md
write_dump all custom pysimm.dump.tmp id q x y z vx vy vz
quit

################################################################################
##################################    Init    ##################################
################################################################################
units           real
atom_style      full
pair_style      lj/cut/coul/long 12.0  12.0
kspace_style    pppm 1e-4
bond_style      harmonic
angle_style     harmonic
dihedral_style  fourier
improper_style  cvff
special_bonds   amber
pair_modify     mix arithmetic
read_data       temp.lmps
  orthogonal box = (-90.3472 -90.3472 -90.3472) to (90.3472 90.3472 90.3472)
  reading atoms ...
  477 atoms
  reading velocities ...
  477 velocities
  scanning bonds ...
  scanning angles ...
  scanning dihedrals ...
  reading bonds ...
  476 bonds
  reading angles ...
  896 angles
  reading dihedrals ...
  1309 dihedrals
################################################################################

min_style cg
minimize 1e-05 1e-05 10000 100000
PPPM initialization ...
  G vector (1/distance) = 0.0977082
  grid = 16 16 16
  stencil order = 5
  estimated absolute RMS force accuracy = 0.0320579
  estimated relative force accuracy = 9.65415e-05
  3d grid and FFT values/proc = 1521 256
  update every 1 steps, delay 0 steps, check yes
Step Temp E_pair E_mol TotEng Press
0    332.35438   -495.24752    138.22357    114.54225    3.3775501
Loop time of 0.091372 on 16 procs for 4 steps with 477 atoms

Minimization stats:
  Stopping criterion = linesearch alpha is zero
  Energy initial, next-to-last, final =
  Force two-norm initial, final = 31.6789 26.8147
  Force max component initial, final = 6.7669 5.22919
  Final line search alpha, max atom move = 1.11642e-11 5.83795e-11
  Iterations, force evaluations = 4 66

timestep        1
fix             pysimm_md all nvt temp 300 300 100
run             5000
PPPM initialization ...
  G vector (1/distance) = 0.0977082
  grid = 16 16 16
  stencil order = 5
  estimated absolute RMS force accuracy = 0.0320579
  estimated relative force accuracy = 9.65415e-05
  3d grid and FFT values/proc = 1521 256
Step Temp E_pair E_mol TotEng Press
4    332.35438   -495.23594    137.11489    113.44515    3.4240694
Loop time of 3.64779 on 16 procs for 5000 steps with 477 atoms

unfix pysimm_md
write_dump all custom pysimm.dump.tmp id q x y z vx vy vz
quit

################################################################################
##################################    Init    ##################################
################################################################################
units           real
atom_style      full
pair_style      lj/cut/coul/long 12.0  12.0
kspace_style    pppm 1e-4
bond_style      harmonic
angle_style     harmonic
dihedral_style  fourier
improper_style  cvff
special_bonds   amber
pair_modify     mix arithmetic
read_data       temp.lmps
  orthogonal box = (-61.1918 -61.1918 -61.1918) to (61.1918 61.1918 61.1918)
  reading atoms ...
  514 atoms
  reading velocities ...
  514 velocities
  scanning bonds ...
  scanning angles ...
  scanning dihedrals ...
  reading bonds ...
  513 bonds
  reading angles ...
  956 angles
  reading dihedrals ...
  1400 dihedrals
################################################################################

min_style cg
minimize 1e-05 1e-05 10000 100000
PPPM initialization ...
  G vector (1/distance) = 0.121882
  grid = 15 15 15
  stencil order = 5
  estimated absolute RMS force accuracy = 0.0279043
  estimated relative force accuracy = 8.40331e-05
  3d grid and FFT values/proc = 1521 256
  update every 1 steps, delay 0 steps, check yes
Step Temp E_pair E_mol TotEng Press
0    748.15342    -589.9628    171.86658    725.94674    26.450651
Loop time of 0.103056 on 16 procs for 2 steps with 514 atoms

Minimization stats:
  Stopping criterion = linesearch alpha is zero
  Energy initial, next-to-last, final =
  Force two-norm initial, final = 46.7603 26.5361
  Force max component initial, final = 16.9474 9.75654
  Final line search alpha, max atom move = 1.68633e-11 1.64527e-10
  Iterations, force evaluations = 2 62

timestep        1
fix             pysimm_md all nvt temp 300 300 100
run             5000
PPPM initialization ...
  G vector (1/distance) = 0.121882
  grid = 15 15 15
  stencil order = 5
  estimated absolute RMS force accuracy = 0.0279043
  estimated relative force accuracy = 8.40331e-05
  3d grid and FFT values/proc = 1521 256
Step Temp E_pair E_mol TotEng Press
2    748.15342    -590.0239    171.33392    725.35298    26.886568
Loop time of 4.34428 on 16 procs for 5000 steps with 514 atoms

unfix pysimm_md
write_dump all custom pysimm.dump.tmp id q x y z vx vy vz
quit

################################################################################
##################################    Init    ##################################
################################################################################
units           real
atom_style      full
pair_style      lj/cut/coul/long 12.0  12.0
kspace_style    pppm 1e-4
bond_style      harmonic
angle_style     harmonic
dihedral_style  fourier
improper_style  cvff
special_bonds   amber
pair_modify     mix arithmetic
read_data       temp.lmps
  orthogonal box = (-93.5766 -93.5766 -93.5766) to (93.5766 93.5766 93.5766)
  reading atoms ...
  524 atoms
  reading velocities ...
  524 velocities
  scanning bonds ...
  scanning angles ...
  scanning dihedrals ...
  reading bonds ...
  523 bonds
  reading angles ...
  978 angles
  reading dihedrals ...
  1428 dihedrals
################################################################################

min_style cg
minimize 1e-05 1e-05 10000 100000
PPPM initialization ...
  G vector (1/distance) = 0.0952443
  grid = 16 16 16
  stencil order = 5
  estimated absolute RMS force accuracy = 0.0340619
  estimated relative force accuracy = 0.000102576
  3d grid and FFT values/proc = 1521 256
  update every 1 steps, delay 0 steps, check yes
Step Temp E_pair E_mol TotEng Press
0    530.84921   -548.91992    181.03158    459.68628    4.7864178
Loop time of 0.245293 on 16 procs for 13 steps with 524 atoms

Minimization stats:
  Stopping criterion = linesearch alpha is zero
  Energy initial, next-to-last, final =
  Force two-norm initial, final = 89.2604 38.1947
  Force max component initial, final = 41.9032 11.5728
  Final line search alpha, max atom move = 8.04749e-12 9.31323e-11
  Iterations, force evaluations = 13 113

timestep        1
fix             pysimm_md all nvt temp 300 300 100
run             5000
PPPM initialization ...
  G vector (1/distance) = 0.0952443
  grid = 16 16 16
  stencil order = 5
  estimated absolute RMS force accuracy = 0.0340619
  estimated relative force accuracy = 0.000102576
  3d grid and FFT values/proc = 1521 256
Step Temp E_pair E_mol TotEng Press
13    530.84921   -549.31738    179.15783    457.41507     5.047258
Loop time of 4.44044 on 16 procs for 5000 steps with 524 atoms

unfix pysimm_md
write_dump all custom pysimm.dump.tmp id q x y z vx vy vz
quit

################################################################################
##################################    Init    ##################################
################################################################################
units           real
atom_style      full
pair_style      lj/cut/coul/long 12.0  12.0
kspace_style    pppm 1e-4
bond_style      harmonic
angle_style     harmonic
dihedral_style  fourier
improper_style  cvff
special_bonds   amber
pair_modify     mix arithmetic
read_data       temp.lmps
  orthogonal box = (-95.1109 -95.1109 -95.1109) to (95.1109 95.1109 95.1109)
  reading atoms ...
  453 atoms
  reading velocities ...
  453 velocities
  scanning bonds ...
  scanning angles ...
  scanning dihedrals ...
  reading bonds ...
  452 bonds
  reading angles ...
  847 angles
  reading dihedrals ...
  1213 dihedrals
################################################################################

min_style cg
minimize 1e-05 1e-05 10000 100000
PPPM initialization ...
  G vector (1/distance) = 0.0897054
  grid = 15 15 15
  stencil order = 5
  estimated absolute RMS force accuracy = 0.0343697
  estimated relative force accuracy = 0.000103503
  3d grid and FFT values/proc = 1521 256
  update every 1 steps, delay 0 steps, check yes
Step Temp E_pair E_mol TotEng Press
0     358.3541   -389.11661    156.07616     249.7794    2.6005752
Loop time of 0.0880504 on 16 procs for 3 steps with 453 atoms

Minimization stats:
  Stopping criterion = linesearch alpha is zero
  Energy initial, next-to-last, final =
  Force two-norm initial, final = 58.8718 36.5839
  Force max component initial, final = 19.2062 12.401
  Final line search alpha, max atom move = 5.64939e-12 7.00582e-11
  Iterations, force evaluations = 3 66

timestep        1
fix             pysimm_md all nvt temp 300 300 100
run             5000
PPPM initialization ...
  G vector (1/distance) = 0.0897054
  grid = 15 15 15
  stencil order = 5
  estimated absolute RMS force accuracy = 0.0343697
  estimated relative force accuracy = 0.000103503
  3d grid and FFT values/proc = 1521 256
Step Temp E_pair E_mol TotEng Press
3     358.3541   -389.31442    154.17324    247.67867    2.7145207
Loop time of 2.65159 on 16 procs for 5000 steps with 453 atoms

unfix pysimm_md
write_dump all custom pysimm.dump.tmp id q x y z vx vy vz
quit

################################################################################
##################################    Init    ##################################
################################################################################
units           real
atom_style      full
pair_style      lj/cut/coul/long 12.0  12.0
kspace_style    pppm 1e-4
bond_style      harmonic
angle_style     harmonic
dihedral_style  fourier
improper_style  cvff
special_bonds   amber
pair_modify     mix arithmetic
read_data       temp.lmps
  orthogonal box = (-96.5972 -96.5972 -96.5972) to (96.5972 96.5972 96.5972)
  reading atoms ...
  490 atoms
  reading velocities ...
  490 velocities
  scanning bonds ...
  scanning angles ...
  scanning dihedrals ...
  reading bonds ...
  489 bonds
  reading angles ...
  923 angles
  reading dihedrals ...
  1327 dihedrals
################################################################################

min_style cg
minimize 1e-05 1e-05 10000 100000
PPPM initialization ...
  G vector (1/distance) = 0.0930446
  grid = 16 16 16
  stencil order = 5
  estimated absolute RMS force accuracy = 0.0322268
  estimated relative force accuracy = 9.70499e-05
  3d grid and FFT values/proc = 1521 256
  update every 1 steps, delay 0 steps, check yes
Step Temp E_pair E_mol TotEng Press
0    944.71329    -374.6417    182.83655    1185.2242    8.7912433
Loop time of 0.124516 on 16 procs for 6 steps with 490 atoms

Minimization stats:
  Stopping criterion = linesearch alpha is zero
  Energy initial, next-to-last, final =
  Force two-norm initial, final = 84.9989 22.2958
  Force max component initial, final = 42.0766 6.77676
  Final line search alpha, max atom move = 1.37429e-11 9.31323e-11
  Iterations, force evaluations = 6 77

timestep        1
fix             pysimm_md all nvt temp 300 300 100
run             5000
PPPM initialization ...
  G vector (1/distance) = 0.0930446
  grid = 16 16 16
  stencil order = 5
  estimated absolute RMS force accuracy = 0.0322268
  estimated relative force accuracy = 9.70499e-05
  3d grid and FFT values/proc = 1521 256
Step Temp E_pair E_mol TotEng Press
6    944.71329   -375.27661    181.28085    1183.0336    8.8473081
Loop time of 3.45325 on 16 procs for 5000 steps with 490 atoms

unfix pysimm_md
write_dump all custom pysimm.dump.tmp id q x y z vx vy vz
quit

################################################################################
##################################    Init    ##################################
################################################################################
units           real
atom_style      full
pair_style      lj/cut/coul/long 12.0  12.0
kspace_style    pppm 1e-4
bond_style      harmonic
angle_style     harmonic
dihedral_style  fourier
improper_style  cvff
special_bonds   amber
pair_modify     mix arithmetic
read_data       temp.lmps
  orthogonal box = (-98.0392 -98.0392 -98.0392) to (98.0392 98.0392 98.0392)
  reading atoms ...
  527 atoms
  reading velocities ...
  527 velocities
  scanning bonds ...
  scanning angles ...
  scanning dihedrals ...
  reading bonds ...
  526 bonds
  reading angles ...
  989 angles
  reading dihedrals ...
  1427 dihedrals
################################################################################

min_style cg
minimize 1e-05 1e-05 10000 100000
PPPM initialization ...
  G vector (1/distance) = 0.0920281
  grid = 16 16 16
  stencil order = 5
  estimated absolute RMS force accuracy = 0.0337994
  estimated relative force accuracy = 0.000101786
  3d grid and FFT values/proc = 1521 256
  update every 1 steps, delay 0 steps, check yes
Step Temp E_pair E_mol TotEng Press
0    484.77222   -464.28311    161.55854    457.35274    4.2415631
Loop time of 0.113514 on 16 procs for 4 steps with 527 atoms

Minimization stats:
  Stopping criterion = linesearch alpha is zero
  Energy initial, next-to-last, final =
  Force two-norm initial, final = 47.2976 32.879
  Force max component initial, final = 19.9075 5.39973
  Final line search alpha, max atom move = 1.05615e-11 5.70293e-11
  Iterations, force evaluations = 4 71

timestep        1
fix             pysimm_md all nvt temp 300 300 100
run             5000
PPPM initialization ...
  G vector (1/distance) = 0.0920281
  grid = 16 16 16
  stencil order = 5
  estimated absolute RMS force accuracy = 0.0337994
  estimated relative force accuracy = 0.000101786
  3d grid and FFT values/proc = 1521 256
Step Temp E_pair E_mol TotEng Press
4    484.77222   -464.74883    160.39701    455.72548    4.1985092
Loop time of 3.69329 on 16 procs for 5000 steps with 527 atoms

unfix pysimm_md
write_dump all custom pysimm.dump.tmp id q x y z vx vy vz
quit

################################################################################
##################################    Init    ##################################
################################################################################
units           real
atom_style      full
pair_style      lj/cut/coul/long 12.0  12.0
kspace_style    pppm 1e-4
bond_style      harmonic
angle_style     harmonic
dihedral_style  fourier
improper_style  cvff
special_bonds   amber
pair_modify     mix arithmetic
read_data       temp.lmps
  orthogonal box = (-99.4399 -99.4399 -99.4399) to (99.4399 99.4399 99.4399)
  reading atoms ...
  510 atoms
  reading velocities ...
  510 velocities
  scanning bonds ...
  scanning angles ...
  scanning dihedrals ...
  reading bonds ...
  509 bonds
  reading angles ...
  973 angles
  reading dihedrals ...
  1380 dihedrals
################################################################################

min_style cg
minimize 1e-05 1e-05 10000 100000
PPPM initialization ...
  G vector (1/distance) = 0.0910612
  grid = 16 16 16
  stencil order = 5
  estimated absolute RMS force accuracy = 0.0328112
  estimated relative force accuracy = 9.88101e-05
  3d grid and FFT values/proc = 1521 256
  update every 1 steps, delay 0 steps, check yes
Step Temp E_pair E_mol TotEng Press
0      272.172    -387.3861    165.84695      191.409    1.7545619
Loop time of 0.101375 on 16 procs for 5 steps with 510 atoms

Minimization stats:
  Stopping criterion = linesearch alpha is zero
  Energy initial, next-to-last, final =
  Force two-norm initial, final = 46.6371 34.423
  Force max component initial, final = 12.4051 11.3331
  Final line search alpha, max atom move = 7.98931e-12 9.05436e-11
  Iterations, force evaluations = 5 69

timestep        1
fix             pysimm_md all nvt temp 300 300 100
run             5000
PPPM initialization ...
  G vector (1/distance) = 0.0910612
  grid = 16 16 16
  stencil order = 5
  estimated absolute RMS force accuracy = 0.0328112
  estimated relative force accuracy = 9.88101e-05
  3d grid and FFT values/proc = 1521 256
Step Temp E_pair E_mol TotEng Press
5      272.172   -386.42715    162.46163    188.98264    1.7254051
Loop time of 3.47559 on 16 procs for 5000 steps with 510 atoms

unfix pysimm_md
write_dump all custom pysimm.dump.tmp id q x y z vx vy vz
quit

################################################################################
##################################    Init    ##################################
################################################################################
units           real
atom_style      full
pair_style      lj/cut/coul/long 12.0  12.0
kspace_style    pppm 1e-4
bond_style      harmonic
angle_style     harmonic
dihedral_style  fourier
improper_style  cvff
special_bonds   amber
pair_modify     mix arithmetic
read_data       temp.lmps
  orthogonal box = (-100.802 -100.802 -100.802) to (100.802 100.802 100.802)
  reading atoms ...
  601 atoms
  reading velocities ...
  601 velocities
  scanning bonds ...
  scanning angles ...
  scanning dihedrals ...
  reading bonds ...
  600 bonds
  reading angles ...
  1154 angles
  reading dihedrals ...
  1638 dihedrals
################################################################################

min_style cg
minimize 1e-05 1e-05 10000 100000
PPPM initialization ...
  G vector (1/distance) = 0.0982942
  grid = 18 18 18
  stencil order = 5
  estimated absolute RMS force accuracy = 0.0294611
  estimated relative force accuracy = 8.87213e-05
  3d grid and FFT values/proc = 1960 648
  update every 1 steps, delay 0 steps, check yes
Step Temp E_pair E_mol TotEng Press
0    631.02836   -518.53528    185.30654    795.35666    6.0583546
Loop time of 0.106568 on 16 procs for 3 steps with 601 atoms

Minimization stats:
  Stopping criterion = linesearch alpha is zero
  Energy initial, next-to-last, final =
  Force two-norm initial, final = 34.7333 27.275
  Force max component initial, final = 4.34273 4.94551
  Final line search alpha, max atom move = 1.08779e-11 5.37966e-11
  Iterations, force evaluations = 3 66

timestep        1
fix             pysimm_md all nvt temp 300 300 100
run             5000
PPPM initialization ...
  G vector (1/distance) = 0.0982942
  grid = 18 18 18
  stencil order = 5
  estimated absolute RMS force accuracy = 0.0294611
  estimated relative force accuracy = 8.87213e-05
  3d grid and FFT values/proc = 1960 648
Step Temp E_pair E_mol TotEng Press
3    631.02836   -518.31781    184.53948    794.80708    6.0999876
Loop time of 3.84522 on 16 procs for 5000 steps with 601 atoms

unfix pysimm_md
write_dump all custom pysimm.dump.tmp id q x y z vx vy vz
quit

################################################################################
##################################    Init    ##################################
################################################################################
units           real
atom_style      full
pair_style      lj/cut/coul/long 12.0  12.0
kspace_style    pppm 1e-4
bond_style      harmonic
angle_style     harmonic
dihedral_style  fourier
improper_style  cvff
special_bonds   amber
pair_modify     mix arithmetic
read_data       temp.lmps
  orthogonal box = (-102.129 -102.129 -102.129) to (102.129 102.129 102.129)
  reading atoms ...
  611 atoms
  reading velocities ...
  611 velocities
  scanning bonds ...
  scanning angles ...
  scanning dihedrals ...
  reading bonds ...
  610 bonds
  reading angles ...
  1175 angles
  reading dihedrals ...
  1660 dihedrals
################################################################################

min_style cg
minimize 1e-05 1e-05 10000 100000
PPPM initialization ...
  G vector (1/distance) = 0.0973703
  grid = 18 18 18
  stencil order = 5
  estimated absolute RMS force accuracy = 0.029753
  estimated relative force accuracy = 8.96001e-05
  3d grid and FFT values/proc = 1960 648
  update every 1 steps, delay 0 steps, check yes
Step Temp E_pair E_mol TotEng Press
0    343.85472   -521.28193    193.77816    297.72524     2.841771
Loop time of 0.103402 on 16 procs for 3 steps with 611 atoms

Minimization stats:
  Stopping criterion = linesearch alpha is zero
  Energy initial, next-to-last, final =
  Force two-norm initial, final = 48.5175 31.79
  Force max component initial, final = 14.2486 7.49088
  Final line search alpha, max atom move = 7.15401e-12 5.35898e-11
  Iterations, force evaluations = 3 66

timestep        1
fix             pysimm_md all nvt temp 300 300 100
run             5000
PPPM initialization ...
  G vector (1/distance) = 0.0973703
  grid = 18 18 18
  stencil order = 5
  estimated absolute RMS force accuracy = 0.029753
  estimated relative force accuracy = 8.96001e-05
  3d grid and FFT values/proc = 1960 648
Step Temp E_pair E_mol TotEng Press
3    343.85472     -521.375     192.5619    296.41592    3.0554546
Loop time of 4.60015 on 16 procs for 5000 steps with 611 atoms

unfix pysimm_md
write_dump all custom pysimm.dump.tmp id q x y z vx vy vz
quit

################################################################################
##################################    Init    ##################################
################################################################################
units           real
atom_style      full
pair_style      lj/cut/coul/long 12.0  12.0
kspace_style    pppm 1e-4
bond_style      harmonic
angle_style     harmonic
dihedral_style  fourier
improper_style  cvff
special_bonds   amber
pair_modify     mix arithmetic
read_data       temp.lmps
  orthogonal box = (-68.796 -68.796 -68.796) to (68.796 68.796 68.796)
  reading atoms ...
  567 atoms
  reading velocities ...
  567 velocities
  scanning bonds ...
  scanning angles ...
  scanning dihedrals ...
  reading bonds ...
  566 bonds
  reading angles ...
  1091 angles
  reading dihedrals ...
  1519 dihedrals
################################################################################

min_style cg
minimize 1e-05 1e-05 10000 100000
PPPM initialization ...
  G vector (1/distance) = 0.112922
  grid = 15 15 15
  stencil order = 5
  estimated absolute RMS force accuracy = 0.0315433
  estimated relative force accuracy = 9.49917e-05
  3d grid and FFT values/proc = 1521 256
  update every 1 steps, delay 0 steps, check yes
Step Temp E_pair E_mol TotEng Press
0     408.3487   -443.20004    187.06434    432.80511    8.9963423
Loop time of 0.129681 on 16 procs for 16 steps with 567 atoms

Minimization stats:
  Stopping criterion = linesearch alpha is zero
  Energy initial, next-to-last, final =
  Force two-norm initial, final = 32.9461 25.5054
  Force max component initial, final = 6.99344 5.23499
  Final line search alpha, max atom move = 1.52771e-11 7.99754e-11
  Iterations, force evaluations = 16 89

timestep        1
fix             pysimm_md all nvt temp 300 300 100
run             5000
PPPM initialization ...
  G vector (1/distance) = 0.112922
  grid = 15 15 15
  stencil order = 5
  estimated absolute RMS force accuracy = 0.0315433
  estimated relative force accuracy = 9.49917e-05
  3d grid and FFT values/proc = 1521 256
Step Temp E_pair E_mol TotEng Press
16     408.3487    -445.9642     181.8976    424.87421    8.7986907
Loop time of 3.95097 on 16 procs for 5000 steps with 567 atoms

unfix pysimm_md
write_dump all custom pysimm.dump.tmp id q x y z vx vy vz
quit

################################################################################
##################################    Init    ##################################
################################################################################
units           real
atom_style      full
pair_style      lj/cut/coul/long 12.0  12.0
kspace_style    pppm 1e-4
bond_style      harmonic
angle_style     harmonic
dihedral_style  fourier
improper_style  cvff
special_bonds   amber
pair_modify     mix arithmetic
read_data       temp.lmps
  orthogonal box = (-104.683 -104.683 -104.683) to (104.683 104.683 104.683)
  reading atoms ...
  604 atoms
  reading velocities ...
  604 velocities
  scanning bonds ...
  scanning angles ...
  scanning dihedrals ...
  reading bonds ...
  603 bonds
  reading angles ...
  1165 angles
  reading dihedrals ...
  1645 dihedrals
################################################################################

min_style cg
minimize 1e-05 1e-05 10000 100000
PPPM initialization ...
  G vector (1/distance) = 0.0956377
  grid = 18 18 18
  stencil order = 5
  estimated absolute RMS force accuracy = 0.0293385
  estimated relative force accuracy = 8.8352e-05
  3d grid and FFT values/proc = 1960 648
  update every 1 steps, delay 0 steps, check yes
Step Temp E_pair E_mol TotEng Press
0     421.5922   -436.82551    220.66538     541.6217    3.8591857
Loop time of 0.119469 on 16 procs for 3 steps with 604 atoms

Minimization stats:
  Stopping criterion = linesearch alpha is zero
  Energy initial, next-to-last, final =
  Force two-norm initial, final = 51.9258 39.8668
  Force max component initial, final = 7.61643 9.70715
  Final line search alpha, max atom move = 5.34576e-12 5.18921e-11
  Iterations, force evaluations = 3 66

timestep        1
fix             pysimm_md all nvt temp 300 300 100
run             5000
PPPM initialization ...
  G vector (1/distance) = 0.0956377
  grid = 18 18 18
  stencil order = 5
  estimated absolute RMS force accuracy = 0.0293385
  estimated relative force accuracy = 8.8352e-05
  3d grid and FFT values/proc = 1960 648
Step Temp E_pair E_mol TotEng Press
3     421.5922   -437.08584    219.03204    539.72803    3.8659119
Loop time of 3.36126 on 16 procs for 5000 steps with 604 atoms

unfix pysimm_md
write_dump all custom pysimm.dump.tmp id q x y z vx vy vz
quit

################################################################################
##################################    Init    ##################################
################################################################################
units           real
atom_style      full
pair_style      lj/cut/coul/long 12.0  12.0
kspace_style    pppm 1e-4
bond_style      harmonic
angle_style     harmonic
dihedral_style  fourier
improper_style  cvff
special_bonds   amber
pair_modify     mix arithmetic
read_data       temp.lmps
  orthogonal box = (-70.4543 -70.4543 -70.4543) to (70.4543 70.4543 70.4543)
  reading atoms ...
  776 atoms
  reading velocities ...
  776 velocities
  scanning bonds ...
  scanning angles ...
  scanning dihedrals ...
  reading bonds ...
  775 bonds
  reading angles ...
  1501 angles
  reading dihedrals ...
  2126 dihedrals
################################################################################

min_style cg
minimize 1e-05 1e-05 10000 100000
PPPM initialization ...
  G vector (1/distance) = 0.11113
  grid = 15 15 15
  stencil order = 5
  estimated absolute RMS force accuracy = 0.039729
  estimated relative force accuracy = 0.000119643
  3d grid and FFT values/proc = 1521 256
  update every 1 steps, delay 0 steps, check yes
Step Temp E_pair E_mol TotEng Press
0    369.71887   -804.52651    252.85571    302.42705    13.214625
Loop time of 0.364876 on 16 procs for 49 steps with 776 atoms

Minimization stats:
  Stopping criterion = linesearch alpha is zero
  Energy initial, next-to-last, final =
  Force two-norm initial, final = 47.0996 26.7502
  Force max component initial, final = 11.1845 5.30632
  Final line search alpha, max atom move = 9.55545e-12 5.07043e-11
  Iterations, force evaluations = 49 155

timestep        1
fix             pysimm_md all nvt temp 300 300 100
run             5000
PPPM initialization ...
  G vector (1/distance) = 0.11113
  grid = 15 15 15
  stencil order = 5
  estimated absolute RMS force accuracy = 0.039729
  estimated relative force accuracy = 0.000119643
  3d grid and FFT values/proc = 1521 256
Step Temp E_pair E_mol TotEng Press
49    369.71887   -813.55627    228.36544    268.90702    13.040505
Loop time of 4.34161 on 16 procs for 5000 steps with 776 atoms

unfix pysimm_md
write_dump all custom pysimm.dump.tmp id q x y z vx vy vz
quit

################################################################################
##################################    Init    ##################################
################################################################################
units           real
atom_style      full
pair_style      lj/cut/coul/long 12.0  12.0
kspace_style    pppm 1e-4
bond_style      harmonic
angle_style     harmonic
dihedral_style  fourier
improper_style  cvff
special_bonds   amber
pair_modify     mix arithmetic
read_data       temp.lmps
  orthogonal box = (-107.118 -107.118 -107.118) to (107.118 107.118 107.118)
  reading atoms ...
  813 atoms
  reading velocities ...
  813 velocities
  scanning bonds ...
  scanning angles ...
  scanning dihedrals ...
  reading bonds ...
  812 bonds
  reading angles ...
  1573 angles
  reading dihedrals ...
  2236 dihedrals
################################################################################

min_style cg
minimize 1e-05 1e-05 10000 100000
PPPM initialization ...
  G vector (1/distance) = 0.0940379
  grid = 18 18 18
  stencil order = 5
  estimated absolute RMS force accuracy = 0.0360243
  estimated relative force accuracy = 0.000108486
  3d grid and FFT values/proc = 1960 648
  update every 1 steps, delay 0 steps, check yes
Loop time of 0.234078 on 16 procs for 15 steps with 813 atoms

Minimization stats:
  Stopping criterion = linesearch alpha is zero
  Energy initial, next-to-last, final =
  Force two-norm initial, final = 47.2445 28.3011
  Force max component initial, final = 8.23905 4.17946
  Final line search alpha, max atom move = 1.51414e-11 6.32828e-11
  Iterations, force evaluations = 15 87

timestep        1
fix             pysimm_md all nvt temp 300 300 100
run             5000
PPPM initialization ...
  G vector (1/distance) = 0.0940379
  grid = 18 18 18
  stencil order = 5
  estimated absolute RMS force accuracy = 0.0360243
  estimated relative force accuracy = 0.000108486
  3d grid and FFT values/proc = 1960 648
Loop time of 4.45718 on 16 procs for 5000 steps with 813 atoms

unfix pysimm_md
write_dump all custom pysimm.dump.tmp id q x y z vx vy vz
quit

################################################################################
##################################    Init    ##################################
################################################################################
units           real
atom_style      full
pair_style      lj/cut/coul/long 12.0  12.0
kspace_style    pppm 1e-4
bond_style      harmonic
angle_style     harmonic
dihedral_style  fourier
improper_style  cvff
special_bonds   amber
pair_modify     mix arithmetic
read_data       temp.lmps
  orthogonal box = (-108.296 -108.296 -108.296) to (108.296 108.296 108.296)
  reading atoms ...
  688 atoms
  reading velocities ...
  688 velocities
  scanning bonds ...
  scanning angles ...
  scanning dihedrals ...
  reading bonds ...
  687 bonds
  reading angles ...
  1328 angles
  reading dihedrals ...
  1863 dihedrals
################################################################################

min_style cg
minimize 1e-05 1e-05 10000 100000
PPPM initialization ...
  G vector (1/distance) = 0.0932834
  grid = 18 18 18
  stencil order = 5
  estimated absolute RMS force accuracy = 0.0319378
  estimated relative force accuracy = 9.61799e-05
  3d grid and FFT values/proc = 1960 648
  update every 1 steps, delay 0 steps, check yes
Loop time of 0.088567 on 16 procs for 2 steps with 688 atoms

Minimization stats:
  Stopping criterion = linesearch alpha is zero
  Energy initial, next-to-last, final =
  Force two-norm initial, final = 42.0208 30.1993
  Force max component initial, final = 5.69814 7.39466
  Final line search alpha, max atom move = 1.05184e-11 7.778e-11
  Iterations, force evaluations = 2 64

timestep        1
fix             pysimm_md all nvt temp 300 300 100
run             5000
PPPM initialization ...
  G vector (1/distance) = 0.0932834
  grid = 18 18 18
  stencil order = 5
  estimated absolute RMS force accuracy = 0.0319378
  estimated relative force accuracy = 9.61799e-05
  3d grid and FFT values/proc = 1960 648
Loop time of 3.71269 on 16 procs for 5000 steps with 688 atoms

unfix pysimm_md
write_dump all custom pysimm.dump.tmp id q x y z vx vy vz
quit

################################################################################
##################################    Init    ##################################
################################################################################
units           real
atom_style      full
pair_style      lj/cut/coul/long 12.0  12.0
kspace_style    pppm 1e-4
bond_style      harmonic
angle_style     harmonic
dihedral_style  fourier
improper_style  cvff
special_bonds   amber
pair_modify     mix arithmetic
read_data       temp.lmps
  orthogonal box = (-109.448 -109.448 -109.448) to (109.448 109.448 109.448)
  reading atoms ...
  833 atoms
  reading velocities ...
  833 velocities
  scanning bonds ...
  scanning angles ...
  scanning dihedrals ...
  reading bonds ...
  832 bonds
  reading angles ...
  1612 angles
  reading dihedrals ...
  2282 dihedrals
################################################################################

min_style cg
minimize 1e-05 1e-05 10000 100000
PPPM initialization ...
  G vector (1/distance) = 0.0999356
  grid = 20 20 20
  stencil order = 5
  estimated absolute RMS force accuracy = 0.0297216
  estimated relative force accuracy = 8.95058e-05
  3d grid and FFT values/proc = 2250 800
  update every 1 steps, delay 0 steps, check yes
Loop time of 0.406506 on 16 procs for 5 steps with 833 atoms

Minimization stats:
  Stopping criterion = linesearch alpha is zero
  Energy initial, next-to-last, final =
  Force two-norm initial, final = 53.3284 41.9523
  Force max component initial, final = 13.015 9.38888
  Final line search alpha, max atom move = 4.23056e-12 3.97202e-11
  Iterations, force evaluations = 5 71

timestep        1
fix             pysimm_md all nvt temp 300 300 100
run             5000
PPPM initialization ...
  G vector (1/distance) = 0.0999356
  grid = 20 20 20
  stencil order = 5
  estimated absolute RMS force accuracy = 0.0297216
  estimated relative force accuracy = 8.95058e-05
  3d grid and FFT values/proc = 2250 800
Loop time of 7.17488 on 16 procs for 5000 steps with 833 atoms

unfix pysimm_md
write_dump all custom pysimm.dump.tmp id q x y z vx vy vz
quit

################################################################################
##################################    Init    ##################################
################################################################################
units           real
atom_style      full
pair_style      lj/cut/coul/long 12.0  12.0
kspace_style    pppm 1e-4
bond_style      harmonic
angle_style     harmonic
dihedral_style  fourier
improper_style  cvff
special_bonds   amber
pair_modify     mix arithmetic
read_data       temp.lmps
  orthogonal box = (-73.5551 -73.5551 -73.5551) to (73.5551 73.5551 73.5551)
  reading atoms ...
  708 atoms
  reading velocities ...
  708 velocities
  scanning bonds ...
  scanning angles ...
  scanning dihedrals ...
  reading bonds ...
  707 bonds
  reading angles ...
  1365 angles
  reading dihedrals ...
  1915 dihedrals
################################################################################

min_style cg
minimize 1e-05 1e-05 10000 100000
PPPM initialization ...
  G vector (1/distance) = 0.107921
  grid = 15 15 15
  stencil order = 5
  estimated absolute RMS force accuracy = 0.0375728
  estimated relative force accuracy = 0.000113149
  3d grid and FFT values/proc = 1521 256
  update every 1 steps, delay 0 steps, check yes
Loop time of 0.331612 on 16 procs for 34 steps with 708 atoms

Minimization stats:
  Stopping criterion = linesearch alpha is zero
  Energy initial, next-to-last, final =
  Force two-norm initial, final = 38.9481 37.6144
  Force max component initial, final = 6.67452 10.0674
  Final line search alpha, max atom move = 6.58234e-12 6.62671e-11
  Iterations, force evaluations = 34 125

timestep        1
fix             pysimm_md all nvt temp 300 300 100
run             5000
PPPM initialization ...
  G vector (1/distance) = 0.107921
  grid = 15 15 15
  stencil order = 5
  estimated absolute RMS force accuracy = 0.0375728
  estimated relative force accuracy = 0.000113149
  3d grid and FFT values/proc = 1521 256
Loop time of 4.15613 on 16 procs for 5000 steps with 708 atoms

unfix pysimm_md
write_dump all custom pysimm.dump.tmp id q x y z vx vy vz
quit

################################################################################
##################################    Init    ##################################
################################################################################
units           real
atom_style      full
pair_style      lj/cut/coul/long 12.0  12.0
kspace_style    pppm 1e-4
bond_style      harmonic
angle_style     harmonic
dihedral_style  fourier
improper_style  cvff
special_bonds   amber
pair_modify     mix arithmetic
read_data       temp.lmps
  orthogonal box = (-74.2907 -74.2907 -74.2907) to (74.2907 74.2907 74.2907)
  reading atoms ...
  826 atoms
  reading velocities ...
  826 velocities
  scanning bonds ...
  scanning angles ...
  scanning dihedrals ...
  reading bonds ...
  825 bonds
  reading angles ...
  1595 angles
  reading dihedrals ...
  2243 dihedrals
################################################################################

min_style cg
minimize 1e-05 1e-05 10000 100000
PPPM initialization ...
  G vector (1/distance) = 0.111994
  grid = 16 16 16
  stencil order = 5
  estimated absolute RMS force accuracy = 0.0361308
  estimated relative force accuracy = 0.000108807
  3d grid and FFT values/proc = 1521 256
  update every 1 steps, delay 0 steps, check yes
Loop time of 0.382504 on 16 procs for 61 steps with 826 atoms

Minimization stats:
  Stopping criterion = linesearch alpha is zero
  Energy initial, next-to-last, final =
  Force two-norm initial, final = 53.8661 33.3701
  Force max component initial, final = 11.4842 7.72996
  Final line search alpha, max atom move = 6.95012e-12 5.37241e-11
  Iterations, force evaluations = 61 179

timestep        1
fix             pysimm_md all nvt temp 300 300 100
run             5000
PPPM initialization ...
  G vector (1/distance) = 0.111994
  grid = 16 16 16
  stencil order = 5
  estimated absolute RMS force accuracy = 0.0361308
  estimated relative force accuracy = 0.000108807
  3d grid and FFT values/proc = 1521 256
Loop time of 5.11996 on 16 procs for 5000 steps with 826 atoms

unfix pysimm_md
write_dump all custom pysimm.dump.tmp id q x y z vx vy vz
quit

################################################################################
##################################    Init    ##################################
################################################################################
units           real
atom_style      full
pair_style      lj/cut/coul/long 12.0  12.0
kspace_style    pppm 1e-4
bond_style      harmonic
angle_style     harmonic
dihedral_style  fourier
improper_style  cvff
special_bonds   amber
pair_modify     mix arithmetic
read_data       temp.lmps
  orthogonal box = (-112.766 -112.766 -112.766) to (112.766 112.766 112.766)
  reading atoms ...
  917 atoms
  reading velocities ...
  917 velocities
  scanning bonds ...
  scanning angles ...
  scanning dihedrals ...
  reading bonds ...
  916 bonds
  reading angles ...
  1774 angles
  reading dihedrals ...
  2517 dihedrals
################################################################################

min_style cg
minimize 1e-05 1e-05 10000 100000
PPPM initialization ...
  G vector (1/distance) = 0.0978131
  grid = 20 20 20
  stencil order = 5
  estimated absolute RMS force accuracy = 0.0317142
  estimated relative force accuracy = 9.55065e-05
  3d grid and FFT values/proc = 2250 800
  update every 1 steps, delay 0 steps, check yes
Loop time of 0.342032 on 16 procs for 7 steps with 917 atoms

Minimization stats:
  Stopping criterion = linesearch alpha is zero
  Energy initial, next-to-last, final =
  Force two-norm initial, final = 40.0042 29.6531
  Force max component initial, final = 8.83615 4.27627
  Final line search alpha, max atom move = 1.32378e-11 5.66085e-11
  Iterations, force evaluations = 7 73

timestep        1
fix             pysimm_md all nvt temp 300 300 100
run             5000
PPPM initialization ...
  G vector (1/distance) = 0.0978131
  grid = 20 20 20
  stencil order = 5
  estimated absolute RMS force accuracy = 0.0317142
  estimated relative force accuracy = 9.55065e-05
  3d grid and FFT values/proc = 2250 800
Loop time of 5.47504 on 16 procs for 5000 steps with 917 atoms

unfix pysimm_md
write_dump all custom pysimm.dump.tmp id q x y z vx vy vz
quit

################################################################################
##################################    Init    ##################################
################################################################################
units           real
atom_style      full
pair_style      lj/cut/coul/long 12.0  12.0
kspace_style    pppm 1e-4
bond_style      harmonic
angle_style     harmonic
dihedral_style  fourier
improper_style  cvff
special_bonds   amber
pair_modify     mix arithmetic
read_data       temp.lmps
  orthogonal box = (-113.83 -113.83 -113.83) to (113.83 113.83 113.83)
  reading atoms ...
  927 atoms
  reading velocities ...
  927 velocities
  scanning bonds ...
  scanning angles ...
  scanning dihedrals ...
  reading bonds ...
  926 bonds
  reading angles ...
  1794 angles
  reading dihedrals ...
  2544 dihedrals
################################################################################

min_style cg
minimize 1e-05 1e-05 10000 100000
PPPM initialization ...
  G vector (1/distance) = 0.0971507
  grid = 20 20 20
  stencil order = 5
  estimated absolute RMS force accuracy = 0.0319252
  estimated relative force accuracy = 9.61419e-05
  3d grid and FFT values/proc = 2250 800
  update every 1 steps, delay 0 steps, check yes
Loop time of 0.548949 on 16 procs for 38 steps with 927 atoms

Minimization stats:
  Stopping criterion = linesearch alpha is zero
  Energy initial, next-to-last, final =
  Force two-norm initial, final = 58.6913 34.9194
  Force max component initial, final = 12.3479 5.7617
  Final line search alpha, max atom move = 7.31343e-12 4.21378e-11
  Iterations, force evaluations = 38 133

timestep        1
fix             pysimm_md all nvt temp 300 300 100
run             5000
PPPM initialization ...
  G vector (1/distance) = 0.0971507
  grid = 20 20 20
  stencil order = 5
  estimated absolute RMS force accuracy = 0.0319252
  estimated relative force accuracy = 9.61419e-05
  3d grid and FFT values/proc = 2250 800
Loop time of 7.30813 on 16 procs for 5000 steps with 927 atoms

unfix pysimm_md
write_dump all custom pysimm.dump.tmp id q x y z vx vy vz
quit

################################################################################
##################################    Init    ##################################
################################################################################
units           real
atom_style      full
pair_style      lj/cut/coul/long 12.0  12.0
kspace_style    pppm 1e-4
bond_style      harmonic
angle_style     harmonic
dihedral_style  fourier
improper_style  cvff
special_bonds   amber
pair_modify     mix arithmetic
read_data       temp.lmps
  orthogonal box = (-76.4145 -76.4145 -76.4145) to (76.4145 76.4145 76.4145)
  reading atoms ...
  748 atoms
  reading velocities ...
  748 velocities
  scanning bonds ...
  scanning angles ...
  scanning dihedrals ...
  reading bonds ...
  747 bonds
  reading angles ...
  1440 angles
  reading dihedrals ...
  1998 dihedrals
################################################################################

min_style cg
minimize 1e-05 1e-05 10000 100000
PPPM initialization ...
  G vector (1/distance) = 0.109884
  grid = 16 16 16
  stencil order = 5
  estimated absolute RMS force accuracy = 0.0337904
  estimated relative force accuracy = 0.000101759
  3d grid and FFT values/proc = 1521 256
  update every 1 steps, delay 0 steps, check yes
Loop time of 0.0472277 on 16 procs for 10 steps with 748 atoms

Minimization stats:
  Stopping criterion = energy tolerance
  Energy initial, next-to-last, final =
  Force two-norm initial, final = 34.5572 25.1331
  Force max component initial, final = 7.88052 6.17455
  Final line search alpha, max atom move = 0.00910088 0.0561938
  Iterations, force evaluations = 10 20

timestep        1
fix             pysimm_md all nvt temp 300 300 100
run             5000
PPPM initialization ...
  G vector (1/distance) = 0.109884
  grid = 16 16 16
  stencil order = 5
  estimated absolute RMS force accuracy = 0.0337904
  estimated relative force accuracy = 0.000101759
  3d grid and FFT values/proc = 1521 256
Loop time of 5.41046 on 16 procs for 5000 steps with 748 atoms

unfix pysimm_md
write_dump all custom pysimm.dump.tmp id q x y z vx vy vz
quit

################################################################################
##################################    Init    ##################################
################################################################################
units           real
atom_style      full
pair_style      lj/cut/coul/long 12.0  12.0
kspace_style    pppm 1e-4
bond_style      harmonic
angle_style     harmonic
dihedral_style  fourier
improper_style  cvff
special_bonds   amber
pair_modify     mix arithmetic
read_data       temp.lmps
  orthogonal box = (-77.0968 -77.0968 -77.0968) to (77.0968 77.0968 77.0968)
  reading atoms ...
  758 atoms
  reading velocities ...
  758 velocities
  scanning bonds ...
  scanning angles ...
  scanning dihedrals ...
  reading bonds ...
  757 bonds
  reading angles ...
  1460 angles
  reading dihedrals ...
  2040 dihedrals
################################################################################

min_style cg
minimize 1e-05 1e-05 10000 100000
PPPM initialization ...
  G vector (1/distance) = 0.109221
  grid = 16 16 16
  stencil order = 5
  estimated absolute RMS force accuracy = 0.0341542
  estimated relative force accuracy = 0.000102854
  3d grid and FFT values/proc = 1521 256
  update every 1 steps, delay 0 steps, check yes
Loop time of 0.122741 on 16 procs for 1 steps with 758 atoms

Minimization stats:
  Stopping criterion = linesearch alpha is zero
  Energy initial, next-to-last, final =
  Force two-norm initial, final = 35.2199 35.2199
  Force max component initial, final = 9.33008 9.33008
  Final line search alpha, max atom move = 9.98193e-12 9.31323e-11
  Iterations, force evaluations = 1 60

timestep        1
fix             pysimm_md all nvt temp 300 300 100
run             5000
PPPM initialization ...
  G vector (1/distance) = 0.109221
  grid = 16 16 16
  stencil order = 5
  estimated absolute RMS force accuracy = 0.0341542
  estimated relative force accuracy = 0.000102854
  3d grid and FFT values/proc = 1521 256
Loop time of 4.22515 on 16 procs for 5000 steps with 758 atoms

unfix pysimm_md
write_dump all custom pysimm.dump.tmp id q x y z vx vy vz
quit

################################################################################
##################################    Init    ##################################
################################################################################
units           real
atom_style      full
pair_style      lj/cut/coul/long 12.0  12.0
kspace_style    pppm 1e-4
bond_style      harmonic
angle_style     harmonic
dihedral_style  fourier
improper_style  cvff
special_bonds   amber
pair_modify     mix arithmetic
read_data       temp.lmps
  orthogonal box = (-77.7672 -77.7672 -77.7672) to (77.7672 77.7672 77.7672)
  reading atoms ...
  849 atoms
  reading velocities ...
  849 velocities
  scanning bonds ...
  scanning angles ...
  scanning dihedrals ...
  reading bonds ...
  848 bonds
  reading angles ...
  1638 angles
  reading dihedrals ...
  2293 dihedrals
################################################################################

min_style cg
minimize 1e-05 1e-05 10000 100000
PPPM initialization ...
  G vector (1/distance) = 0.108577
  grid = 16 16 16
  stencil order = 5
  estimated absolute RMS force accuracy = 0.0372096
  estimated relative force accuracy = 0.000112056
  3d grid and FFT values/proc = 1521 256
  update every 1 steps, delay 0 steps, check yes
Loop time of 0.310992 on 16 procs for 11 steps with 849 atoms

Minimization stats:
  Stopping criterion = linesearch alpha is zero
  Energy initial, next-to-last, final =
  Force two-norm initial, final = 36.7651 32.8487
  Force max component initial, final = 5.50511 4.74737
  Final line search alpha, max atom move = 6.40948e-12 3.04282e-11
  Iterations, force evaluations = 11 81

timestep        1
fix             pysimm_md all nvt temp 300 300 100
run             5000
PPPM initialization ...
  G vector (1/distance) = 0.108577
  grid = 16 16 16
  stencil order = 5
  estimated absolute RMS force accuracy = 0.0372096
  estimated relative force accuracy = 0.000112056
  3d grid and FFT values/proc = 1521 256
Loop time of 9.04792 on 16 procs for 5000 steps with 849 atoms

unfix pysimm_md
write_dump all custom pysimm.dump.tmp id q x y z vx vy vz
quit

################################################################################
##################################    Init    ##################################
################################################################################
units           real
atom_style      full
pair_style      lj/cut/coul/long 12.0  12.0
kspace_style    pppm 1e-4
bond_style      harmonic
angle_style     harmonic
dihedral_style  fourier
improper_style  cvff
special_bonds   amber
pair_modify     mix arithmetic
read_data       temp.lmps
  orthogonal box = (-78.4263 -78.4263 -78.4263) to (78.4263 78.4263 78.4263)
  reading atoms ...
  805 atoms
  reading velocities ...
  805 velocities
  scanning bonds ...
  scanning angles ...
  scanning dihedrals ...
  reading bonds ...
  804 bonds
  reading angles ...
  1550 angles
  reading dihedrals ...
  2163 dihedrals
################################################################################

min_style cg
minimize 1e-05 1e-05 10000 100000
PPPM initialization ...
  G vector (1/distance) = 0.107952
  grid = 16 16 16
  stencil order = 5
  estimated absolute RMS force accuracy = 0.0357779
  estimated relative force accuracy = 0.000107744
  3d grid and FFT values/proc = 1521 256
  update every 1 steps, delay 0 steps, check yes
Loop time of 0.176745 on 16 procs for 9 steps with 805 atoms

Minimization stats:
  Stopping criterion = linesearch alpha is zero
  Energy initial, next-to-last, final =
  Force two-norm initial, final = 46.2655 30.8184
  Force max component initial, final = 9.31431 7.61362
  Final line search alpha, max atom move = 8.56462e-12 6.52077e-11
  Iterations, force evaluations = 9 77

timestep        1
fix             pysimm_md all nvt temp 300 300 100
run             5000
PPPM initialization ...
  G vector (1/distance) = 0.107952
  grid = 16 16 16
  stencil order = 5
  estimated absolute RMS force accuracy = 0.0357779
  estimated relative force accuracy = 0.000107744
  3d grid and FFT values/proc = 1521 256
Loop time of 4.26104 on 16 procs for 5000 steps with 805 atoms

unfix pysimm_md
write_dump all custom pysimm.dump.tmp id q x y z vx vy vz
quit

################################################################################
##################################    Init    ##################################
################################################################################
units           real
atom_style      full
pair_style      lj/cut/coul/long 12.0  12.0
kspace_style    pppm 1e-4
bond_style      harmonic
angle_style     harmonic
dihedral_style  fourier
improper_style  cvff
special_bonds   amber
pair_modify     mix arithmetic
read_data       temp.lmps
  orthogonal box = (-118.874 -118.874 -118.874) to (118.874 118.874 118.874)
  reading atoms ...
  1004 atoms
  reading velocities ...
  1004 velocities
  scanning bonds ...
  scanning angles ...
  scanning dihedrals ...
  reading bonds ...
  1003 bonds
  reading angles ...
  1941 angles
  reading dihedrals ...
  2754 dihedrals
################################################################################

min_style cg
minimize 1e-05 1e-05 10000 100000
PPPM initialization ...
  G vector (1/distance) = 0.0941234
  grid = 20 20 20
  stencil order = 5
  estimated absolute RMS force accuracy = 0.0335042
  estimated relative force accuracy = 0.000100897
  3d grid and FFT values/proc = 2250 800
  update every 1 steps, delay 0 steps, check yes
Loop time of 0.685169 on 16 procs for 22 steps with 1004 atoms

Minimization stats:
  Stopping criterion = linesearch alpha is zero
  Energy initial, next-to-last, final =
  Force two-norm initial, final = 62.0415 45.2958
  Force max component initial, final = 15.6737 10.8584
  Final line search alpha, max atom move = 4.89915e-12 5.31968e-11
  Iterations, force evaluations = 22 101

timestep        1
fix             pysimm_md all nvt temp 300 300 100
run             5000
PPPM initialization ...
  G vector (1/distance) = 0.0941234
  grid = 20 20 20
  stencil order = 5
  estimated absolute RMS force accuracy = 0.0335042
  estimated relative force accuracy = 0.000100897
  3d grid and FFT values/proc = 2250 800
Loop time of 10.251 on 16 procs for 5000 steps with 1004 atoms

unfix pysimm_md
write_dump all custom pysimm.dump.tmp id q x y z vx vy vz
quit

################################################################################
##################################    Init    ##################################
################################################################################
units           real
atom_style      full
pair_style      lj/cut/coul/long 12.0  12.0
kspace_style    pppm 1e-4
bond_style      harmonic
angle_style     harmonic
dihedral_style  fourier
improper_style  cvff
special_bonds   amber
pair_modify     mix arithmetic
read_data       temp.lmps
  orthogonal box = (-119.832 -119.832 -119.832) to (119.832 119.832 119.832)
  reading atoms ...
  1068 atoms
  reading velocities ...
  1068 velocities
  scanning bonds ...
  scanning angles ...
  scanning dihedrals ...
  reading bonds ...
  1067 bonds
  reading angles ...
  2067 angles
  reading dihedrals ...
  2927 dihedrals
################################################################################

min_style cg
minimize 1e-05 1e-05 10000 100000
PPPM initialization ...
  G vector (1/distance) = 0.0935682
  grid = 20 20 20
  stencil order = 5
  estimated absolute RMS force accuracy = 0.0349202
  estimated relative force accuracy = 0.000105161
  3d grid and FFT values/proc = 2250 800
  update every 1 steps, delay 0 steps, check yes
Loop time of 0.463515 on 16 procs for 3 steps with 1068 atoms

Minimization stats:
  Stopping criterion = linesearch alpha is zero
  Energy initial, next-to-last, final =
  Force two-norm initial, final = 48.077 38.8852
  Force max component initial, final = 7.03056 9.46305
  Final line search alpha, max atom move = 5.61031e-12 5.30907e-11
  Iterations, force evaluations = 3 67

timestep        1
fix             pysimm_md all nvt temp 300 300 100
run             5000
PPPM initialization ...
  G vector (1/distance) = 0.0935682
  grid = 20 20 20
  stencil order = 5
  estimated absolute RMS force accuracy = 0.0349202
  estimated relative force accuracy = 0.000105161
  3d grid and FFT values/proc = 2250 800
Loop time of 13.8551 on 16 procs for 5000 steps with 1068 atoms

unfix pysimm_md
write_dump all custom pysimm.dump.tmp id q x y z vx vy vz
quit

################################################################################
##################################    Init    ##################################
################################################################################
units           real
atom_style      full
pair_style      lj/cut/coul/long 12.0  12.0
kspace_style    pppm 1e-4
bond_style      harmonic
angle_style     harmonic
dihedral_style  fourier
improper_style  cvff
special_bonds   amber
pair_modify     mix arithmetic
read_data       temp.lmps
  orthogonal box = (-80.3399 -80.3399 -80.3399) to (80.3399 80.3399 80.3399)
  reading atoms ...
  862 atoms
  reading velocities ...
  862 velocities
  scanning bonds ...
  scanning angles ...
  scanning dihedrals ...
  reading bonds ...
  861 bonds
  reading angles ...
  1661 angles
  reading dihedrals ...
  2326 dihedrals
################################################################################

min_style cg
minimize 1e-05 1e-05 10000 100000
PPPM initialization ...
  G vector (1/distance) = 0.106173
  grid = 16 16 16
  stencil order = 5
  estimated absolute RMS force accuracy = 0.0376825
  estimated relative force accuracy = 0.00011348
  3d grid and FFT values/proc = 1521 256
  update every 1 steps, delay 0 steps, check yes
Loop time of 0.179299 on 16 procs for 11 steps with 862 atoms

Minimization stats:
  Stopping criterion = linesearch alpha is zero
  Energy initial, next-to-last, final =
  Force two-norm initial, final = 32.7382 22.805
  Force max component initial, final = 6.49016 3.20068
  Final line search alpha, max atom move = 2.37761e-11 7.60997e-11
  Iterations, force evaluations = 11 79

timestep        1
fix             pysimm_md all nvt temp 300 300 100
run             5000
PPPM initialization ...
  G vector (1/distance) = 0.106173
  grid = 16 16 16
  stencil order = 5
  estimated absolute RMS force accuracy = 0.0376825
  estimated relative force accuracy = 0.00011348
  3d grid and FFT values/proc = 1521 256
Loop time of 5.77193 on 16 procs for 5000 steps with 862 atoms

unfix pysimm_md
write_dump all custom pysimm.dump.tmp id q x y z vx vy vz
quit

################################################################################
##################################    Init    ##################################
################################################################################
units           real
atom_style      full
pair_style      lj/cut/coul/long 12.0  12.0
kspace_style    pppm 1e-4
bond_style      harmonic
angle_style     harmonic
dihedral_style  fourier
improper_style  cvff
special_bonds   amber
pair_modify     mix arithmetic
read_data       temp.lmps
  orthogonal box = (-121.705 -121.705 -121.705) to (121.705 121.705 121.705)
  reading atoms ...
  1034 atoms
  reading velocities ...
  1034 velocities
  scanning bonds ...
  scanning angles ...
  scanning dihedrals ...
  reading bonds ...
  1033 bonds
  reading angles ...
  1998 angles
  reading dihedrals ...
  2826 dihedrals
################################################################################

min_style cg
minimize 1e-05 1e-05 10000 100000
PPPM initialization ...
  G vector (1/distance) = 0.0925014
  grid = 20 20 20
  stencil order = 5
  estimated absolute RMS force accuracy = 0.033989
  estimated relative force accuracy = 0.000102357
  3d grid and FFT values/proc = 2250 800
  update every 1 steps, delay 0 steps, check yes
Loop time of 0.233883 on 16 procs for 7 steps with 1034 atoms

Minimization stats:
  Stopping criterion = linesearch alpha is zero
  Energy initial, next-to-last, final =
  Force two-norm initial, final = 43.6254 36.5384
  Force max component initial, final = 7.76323 7.35013
  Final line search alpha, max atom move = 8.72841e-12 6.4155e-11
  Iterations, force evaluations = 7 73

timestep        1
fix             pysimm_md all nvt temp 300 300 100
run             5000
PPPM initialization ...
  G vector (1/distance) = 0.0925014
  grid = 20 20 20
  stencil order = 5
  estimated absolute RMS force accuracy = 0.033989
  estimated relative force accuracy = 0.000102357
  3d grid and FFT values/proc = 2250 800
Loop time of 6.32248 on 16 procs for 5000 steps with 1034 atoms

unfix pysimm_md
write_dump all custom pysimm.dump.tmp id q x y z vx vy vz
quit

################################################################################
##################################    Init    ##################################
################################################################################
units           real
atom_style      full
pair_style      lj/cut/coul/long 12.0  12.0
kspace_style    pppm 1e-4
bond_style      harmonic
angle_style     harmonic
dihedral_style  fourier
improper_style  cvff
special_bonds   amber
pair_modify     mix arithmetic
read_data       temp.lmps
  orthogonal box = (-81.5666 -81.5666 -81.5666) to (81.5666 81.5666 81.5666)
  reading atoms ...
  1152 atoms
  reading velocities ...
  1152 velocities
  scanning bonds ...
  scanning angles ...
  scanning dihedrals ...
  reading bonds ...
  1151 bonds
  reading angles ...
  2228 angles
  reading dihedrals ...
  3161 dihedrals
################################################################################

min_style cg
minimize 1e-05 1e-05 10000 100000
PPPM initialization ...
  G vector (1/distance) = 0.113831
  grid = 18 18 18
  stencil order = 5
  estimated absolute RMS force accuracy = 0.035307
  estimated relative force accuracy = 0.000106326
  3d grid and FFT values/proc = 1960 648
  update every 1 steps, delay 0 steps, check yes
Loop time of 0.850467 on 16 procs for 55 steps with 1152 atoms

Minimization stats:
  Stopping criterion = linesearch alpha is zero
  Energy initial, next-to-last, final =
  Force two-norm initial, final = 59.0153 33.5129
  Force max component initial, final = 13.6811 5.69376
  Final line search alpha, max atom move = 8.94892e-12 5.0953e-11
  Iterations, force evaluations = 55 217

timestep        1
fix             pysimm_md all nvt temp 300 300 100
run             5000
PPPM initialization ...
  G vector (1/distance) = 0.113831
  grid = 18 18 18
  stencil order = 5
  estimated absolute RMS force accuracy = 0.035307
  estimated relative force accuracy = 0.000106326
  3d grid and FFT values/proc = 1960 648
Loop time of 6.24908 on 16 procs for 5000 steps with 1152 atoms

unfix pysimm_md
write_dump all custom pysimm.dump.tmp id q x y z vx vy vz
quit

################################################################################
##################################    Init    ##################################
################################################################################
units           real
atom_style      full
pair_style      lj/cut/coul/long 12.0  12.0
kspace_style    pppm 1e-4
bond_style      harmonic
angle_style     harmonic
dihedral_style  fourier
improper_style  cvff
special_bonds   amber
pair_modify     mix arithmetic
read_data       temp.lmps
  orthogonal box = (-82.1664 -82.1664 -82.1664) to (82.1664 82.1664 82.1664)
  reading atoms ...
  1027 atoms
  reading velocities ...
  1027 velocities
  scanning bonds ...
  scanning angles ...
  scanning dihedrals ...
  reading bonds ...
  1026 bonds
  reading angles ...
  1982 angles
  reading dihedrals ...
  2800 dihedrals
################################################################################

min_style cg
minimize 1e-05 1e-05 10000 100000
PPPM initialization ...
  G vector (1/distance) = 0.113277
  grid = 18 18 18
  stencil order = 5
  estimated absolute RMS force accuracy = 0.03262
  estimated relative force accuracy = 9.82343e-05
  3d grid and FFT values/proc = 1960 648
  update every 1 steps, delay 0 steps, check yes
Loop time of 0.313241 on 16 procs for 9 steps with 1027 atoms

Minimization stats:
  Stopping criterion = linesearch alpha is zero
  Energy initial, next-to-last, final =
  Force two-norm initial, final = 32.8418 27.1812
  Force max component initial, final = 5.73329 4.66415
  Final line search alpha, max atom move = 1.67725e-11 7.82294e-11
  Iterations, force evaluations = 9 75

timestep        1
fix             pysimm_md all nvt temp 300 300 100
run             5000
PPPM initialization ...
  G vector (1/distance) = 0.113277
  grid = 18 18 18
  stencil order = 5
  estimated absolute RMS force accuracy = 0.03262
  estimated relative force accuracy = 9.82343e-05
  3d grid and FFT values/proc = 1960 648
Loop time of 9.4283 on 16 procs for 5000 steps with 1027 atoms

unfix pysimm_md
write_dump all custom pysimm.dump.tmp id q x y z vx vy vz
quit

################################################################################
##################################    Init    ##################################
################################################################################
units           real
atom_style      full
pair_style      lj/cut/coul/long 12.0  12.0
kspace_style    pppm 1e-4
bond_style      harmonic
angle_style     harmonic
dihedral_style  fourier
improper_style  cvff
special_bonds   amber
pair_modify     mix arithmetic
read_data       temp.lmps
  orthogonal box = (-124.41 -124.41 -124.41) to (124.41 124.41 124.41)
  reading atoms ...
  1145 atoms
  reading velocities ...
  1145 velocities
  scanning bonds ...
  scanning angles ...
  scanning dihedrals ...
  reading bonds ...
  1144 bonds
  reading angles ...
  2214 angles
  reading dihedrals ...
  3122 dihedrals
################################################################################

min_style cg
minimize 1e-05 1e-05 10000 100000
PPPM initialization ...
  G vector (1/distance) = 0.103843
  grid = 24 24 24
  stencil order = 5
  estimated absolute RMS force accuracy = 0.025304
  estimated relative force accuracy = 7.62022e-05
  3d grid and FFT values/proc = 3179 1152
  update every 1 steps, delay 0 steps, check yes
Loop time of 0.220421 on 16 procs for 10 steps with 1145 atoms

Minimization stats:
  Stopping criterion = linesearch alpha is zero
  Energy initial, next-to-last, final =
  Force two-norm initial, final = 47.1569 35.3889
  Force max component initial, final = 10.9269 6.28091
  Final line search alpha, max atom move = 8.76729e-12 5.50665e-11
  Iterations, force evaluations = 10 79

timestep        1
fix             pysimm_md all nvt temp 300 300 100
run             5000
PPPM initialization ...
  G vector (1/distance) = 0.103843
  grid = 24 24 24
  stencil order = 5
  estimated absolute RMS force accuracy = 0.025304
  estimated relative force accuracy = 7.62022e-05
  3d grid and FFT values/proc = 3179 1152
Loop time of 5.34665 on 16 procs for 5000 steps with 1145 atoms

unfix pysimm_md
write_dump all custom pysimm.dump.tmp id q x y z vx vy vz
quit

################################################################################
##################################    Init    ##################################
################################################################################
units           real
atom_style      full
pair_style      lj/cut/coul/long 12.0  12.0
kspace_style    pppm 1e-4
bond_style      harmonic
angle_style     harmonic
dihedral_style  fourier
improper_style  cvff
special_bonds   amber
pair_modify     mix arithmetic
read_data       temp.lmps
  orthogonal box = (-83.3404 -83.3404 -83.3404) to (83.3404 83.3404 83.3404)
  reading atoms ...
  1263 atoms
  reading velocities ...
  1263 velocities
  scanning bonds ...
  scanning angles ...
  scanning dihedrals ...
  reading bonds ...
  1262 bonds
  reading angles ...
  2444 angles
  reading dihedrals ...
  3457 dihedrals
################################################################################

min_style cg
minimize 1e-05 1e-05 10000 100000
PPPM initialization ...
  G vector (1/distance) = 0.112208
  grid = 18 18 18
  stencil order = 5
  estimated absolute RMS force accuracy = 0.0379353
  estimated relative force accuracy = 0.000114241
  3d grid and FFT values/proc = 1960 648
  update every 1 steps, delay 0 steps, check yes
Loop time of 0.684008 on 16 procs for 17 steps with 1263 atoms

Minimization stats:
  Stopping criterion = linesearch alpha is zero
  Energy initial, next-to-last, final =
  Force two-norm initial, final = 49.1575 38.174
  Force max component initial, final = 7.49283 11.5706
  Final line search alpha, max atom move = 5.08728e-12 5.88628e-11
  Iterations, force evaluations = 17 93

timestep        1
fix             pysimm_md all nvt temp 300 300 100
run             5000
PPPM initialization ...
  G vector (1/distance) = 0.112208
  grid = 18 18 18
  stencil order = 5
  estimated absolute RMS force accuracy = 0.0379353
  estimated relative force accuracy = 0.000114241
  3d grid and FFT values/proc = 1960 648
Loop time of 14.5733 on 16 procs for 5000 steps with 1263 atoms

unfix pysimm_md
write_dump all custom pysimm.dump.tmp id q x y z vx vy vz
quit

################################################################################
##################################    Init    ##################################
################################################################################
units           real
atom_style      full
pair_style      lj/cut/coul/long 12.0  12.0
kspace_style    pppm 1e-4
bond_style      harmonic
angle_style     harmonic
dihedral_style  fourier
improper_style  cvff
special_bonds   amber
pair_modify     mix arithmetic
read_data       temp.lmps
  orthogonal box = (-126.151 -126.151 -126.151) to (126.151 126.151 126.151)
  reading atoms ...
  1192 atoms
  reading velocities ...
  1192 velocities
  scanning bonds ...
  scanning angles ...
  scanning dihedrals ...
  reading bonds ...
  1191 bonds
  reading angles ...
  2306 angles
  reading dihedrals ...
  3261 dihedrals
################################################################################

min_style cg
minimize 1e-05 1e-05 10000 100000
PPPM initialization ...
  G vector (1/distance) = 0.102835
  grid = 24 24 24
  stencil order = 5
  estimated absolute RMS force accuracy = 0.0260485
  estimated relative force accuracy = 7.84442e-05
  3d grid and FFT values/proc = 3179 1152
  update every 1 steps, delay 0 steps, check yes
Loop time of 0.355723 on 16 procs for 4 steps with 1192 atoms

Minimization stats:
  Stopping criterion = linesearch alpha is zero
  Energy initial, next-to-last, final =
  Force two-norm initial, final = 49.6325 36.6446
  Force max component initial, final = 9.07114 5.5234
  Final line search alpha, max atom move = 5.29155e-12 2.92274e-11
  Iterations, force evaluations = 4 69

timestep        1
fix             pysimm_md all nvt temp 300 300 100
run             5000
PPPM initialization ...
  G vector (1/distance) = 0.102835
  grid = 24 24 24
  stencil order = 5
  estimated absolute RMS force accuracy = 0.0260485
  estimated relative force accuracy = 7.84442e-05
  3d grid and FFT values/proc = 3179 1152
Loop time of 13.1785 on 16 procs for 5000 steps with 1192 atoms

unfix pysimm_md
write_dump all custom pysimm.dump.tmp id q x y z vx vy vz
quit

################################################################################
##################################    Init    ##################################
################################################################################
units           real
atom_style      full
pair_style      lj/cut/coul/long 12.0  12.0
kspace_style    pppm 1e-4
bond_style      harmonic
angle_style     harmonic
dihedral_style  fourier
improper_style  cvff
special_bonds   amber
pair_modify     mix arithmetic
read_data       temp.lmps
  orthogonal box = (-127.003 -127.003 -127.003) to (127.003 127.003 127.003)
  reading atoms ...
  1148 atoms
  reading velocities ...
  1148 velocities
  scanning bonds ...
  scanning angles ...
  scanning dihedrals ...
  reading bonds ...
  1147 bonds
  reading angles ...
  2219 angles
  reading dihedrals ...
  3139 dihedrals
################################################################################

min_style cg
minimize 1e-05 1e-05 10000 100000
PPPM initialization ...
  G vector (1/distance) = 0.0896053
  grid = 20 20 20
  stencil order = 5
  estimated absolute RMS force accuracy = 0.0360637
  estimated relative force accuracy = 0.000108605
  3d grid and FFT values/proc = 2250 800
  update every 1 steps, delay 0 steps, check yes
Loop time of 0.182292 on 16 procs for 2 steps with 1148 atoms

Minimization stats:
  Stopping criterion = linesearch alpha is zero
  Energy initial, next-to-last, final =
  Force two-norm initial, final = 57.4679 39.5421
  Force max component initial, final = 11.7199 11.1266
  Final line search alpha, max atom move = 4.18677e-12 4.65844e-11
  Iterations, force evaluations = 2 66

timestep        1
fix             pysimm_md all nvt temp 300 300 100
run             5000
PPPM initialization ...
  G vector (1/distance) = 0.0896053
  grid = 20 20 20
  stencil order = 5
  estimated absolute RMS force accuracy = 0.0360637
  estimated relative force accuracy = 0.000108605
  3d grid and FFT values/proc = 2250 800
Loop time of 6.91076 on 16 procs for 5000 steps with 1148 atoms

unfix pysimm_md
write_dump all custom pysimm.dump.tmp id q x y z vx vy vz
quit
