################################################################################
##################################    Init    ##################################
################################################################################
units           real
atom_style      full
pair_style      lj/cut/coul/long 12.0  12.0
kspace_style    pppm 1e-4
bond_style      harmonic
angle_style     harmonic
dihedral_style  fourier
improper_style  cvff
special_bonds   amber
pair_modify     mix arithmetic
read_data       temp.lmps
  orthogonal box = (-101.437 -101.437 -101.437) to (101.437 101.437 101.437)
  reading atoms ...
  734 atoms
  reading velocities ...
  734 velocities
  scanning bonds ...
  scanning angles ...
  scanning dihedrals ...
  scanning impropers ...
  reading bonds ...
  862 bonds
  reading angles ...
  1800 angles
  reading dihedrals ...
  3358 dihedrals
  reading impropers ...
  60 impropers
################################################################################

min_style cg
minimize 1e-06 1e-06 1000000 10000000
PPPM initialization ...
  G vector (1/distance) = 0.141881
  grid = 32 32 32
  stencil order = 5
  estimated absolute RMS force accuracy = 0.00107118
  estimated relative force accuracy = 3.22583e-06
  3d grid and FFT values/proc = 50653 32768
  update every 1 steps, delay 0 steps, check yes
Step Temp E_pair E_mol TotEng Press
0    215.23882    145.67669     5021.876    5637.8352   -1.1393242
Loop time of 7.44357 on 1 procs for 376 steps with 734 atoms

Minimization stats:
  Stopping criterion = energy tolerance
  Energy initial, next-to-last, final =
  Force two-norm initial, final = 854.035 7.00598
  Force max component initial, final = 298.228 0.731566
  Final line search alpha, max atom move = 0.00992249 0.00725896
  Iterations, force evaluations = 376 750

write_dump all custom pysimm.dump.tmp id q x y z vx vy vz
quit

################################################################################
##################################    Init    ##################################
################################################################################
units           real
atom_style      full
pair_style      lj/cut/coul/long 12.0  12.0
kspace_style    pppm 1e-4
bond_style      harmonic
angle_style     harmonic
dihedral_style  fourier
improper_style  cvff
special_bonds   amber
pair_modify     mix arithmetic
read_data       temp.lmps
  orthogonal box = (-127.803 -127.803 -127.803) to (127.803 127.803 127.803)
  reading atoms ...
  809 atoms
  reading velocities ...
  809 velocities
  scanning bonds ...
  scanning angles ...
  scanning dihedrals ...
  scanning impropers ...
  reading bonds ...
  949 bonds
  reading angles ...
  1980 angles
  reading dihedrals ...
  3689 dihedrals
  reading impropers ...
  66 impropers
################################################################################

min_style cg
minimize 1e-06 1e-06 1000000 10000000
PPPM initialization ...
  G vector (1/distance) = 0.141266
  grid = 40 40 40
  stencil order = 5
  estimated absolute RMS force accuracy = 0.000814554
  estimated relative force accuracy = 2.45301e-06
  3d grid and FFT values/proc = 91125 64000
  update every 1 steps, delay 0 steps, check yes
Step Temp E_pair E_mol TotEng Press
0    969.33314    154.63459    5817.3109    8306.5791     1.614573
Loop time of 30.2213 on 1 procs for 874 steps with 809 atoms

Minimization stats:
  Stopping criterion = energy tolerance
  Energy initial, next-to-last, final =
  Force two-norm initial, final = 1046.16 6.90101
  Force max component initial, final = 305.519 0.621846
  Final line search alpha, max atom move = 0.0103179 0.00641617
  Iterations, force evaluations = 874 1746

write_dump all custom pysimm.dump.tmp id q x y z vx vy vz
quit

################################################################################
##################################    Init    ##################################
################################################################################
units           real
atom_style      full
pair_style      lj/cut/coul/long 12.0  12.0
kspace_style    pppm 1e-4
bond_style      harmonic
angle_style     harmonic
dihedral_style  fourier
improper_style  cvff
special_bonds   amber
pair_modify     mix arithmetic
read_data       temp.lmps
  orthogonal box = (-131.928 -131.928 -131.928) to (131.928 131.928 131.928)
  reading atoms ...
  884 atoms
  reading velocities ...
  884 velocities
  scanning bonds ...
  scanning angles ...
  scanning dihedrals ...
  scanning impropers ...
  reading bonds ...
  1036 bonds
  reading angles ...
  2160 angles
  reading dihedrals ...
  4020 dihedrals
  reading impropers ...
  72 impropers
################################################################################

min_style cg
minimize 1e-06 1e-06 1000000 10000000
PPPM initialization ...
  G vector (1/distance) = 0.148094
  grid = 45 45 45
  stencil order = 5
  estimated absolute RMS force accuracy = 0.000607271
  estimated relative force accuracy = 1.82878e-06
  3d grid and FFT values/proc = 125000 91125
  update every 1 steps, delay 0 steps, check yes
Step Temp E_pair E_mol TotEng Press
0    1101.7974    335.13392    6358.3205     9593.446    2.4245744
Loop time of 42.1108 on 1 procs for 906 steps with 884 atoms

Minimization stats:
  Stopping criterion = energy tolerance
  Energy initial, next-to-last, final =
  Force two-norm initial, final = 1899.14 8.37029
  Force max component initial, final = 930.598 0.788748
  Final line search alpha, max atom move = 0.0049447 0.00390012
  Iterations, force evaluations = 906 1808

write_dump all custom pysimm.dump.tmp id q x y z vx vy vz
quit

################################################################################
##################################    Init    ##################################
################################################################################
units           real
atom_style      full
pair_style      lj/cut/coul/long 12.0  12.0
kspace_style    pppm 1e-4
bond_style      harmonic
angle_style     harmonic
dihedral_style  fourier
improper_style  cvff
special_bonds   amber
pair_modify     mix arithmetic
read_data       temp.lmps
  orthogonal box = (-135.811 -135.811 -135.811) to (135.811 135.811 135.811)
  reading atoms ...
  959 atoms
  reading velocities ...
  959 velocities
  scanning bonds ...
  scanning angles ...
  scanning dihedrals ...
  scanning impropers ...
  reading bonds ...
  1123 bonds
  reading angles ...
  2340 angles
  reading dihedrals ...
  4351 dihedrals
  reading impropers ...
  78 impropers
################################################################################

min_style cg
minimize 1e-06 1e-06 1000000 10000000
PPPM initialization ...
  G vector (1/distance) = 0.145768
  grid = 45 45 45
  stencil order = 5
  estimated absolute RMS force accuracy = 0.000667544
  estimated relative force accuracy = 2.01029e-06
  3d grid and FFT values/proc = 125000 91125
  update every 1 steps, delay 0 steps, check yes
Step Temp E_pair E_mol TotEng Press
0    949.13523    231.17078    6955.4115    9896.9481    1.9299977
Loop time of 39.746 on 1 procs for 829 steps with 959 atoms

Minimization stats:
  Stopping criterion = energy tolerance
  Energy initial, next-to-last, final =
  Force two-norm initial, final = 1434.25 8.22902
  Force max component initial, final = 456.66 0.774087
  Final line search alpha, max atom move = 0.0118237 0.00915259
  Iterations, force evaluations = 829 1654

write_dump all custom pysimm.dump.tmp id q x y z vx vy vz
quit

################################################################################
##################################    Init    ##################################
################################################################################
units           real
atom_style      full
pair_style      lj/cut/coul/long 12.0  12.0
kspace_style    pppm 1e-4
bond_style      harmonic
angle_style     harmonic
dihedral_style  fourier
improper_style  cvff
special_bonds   amber
pair_modify     mix arithmetic
read_data       temp.lmps
  orthogonal box = (-139.483 -139.483 -139.483) to (139.483 139.483 139.483)
  reading atoms ...
  1034 atoms
  reading velocities ...
  1034 velocities
  scanning bonds ...
  scanning angles ...
  scanning dihedrals ...
  scanning impropers ...
  reading bonds ...
  1210 bonds
  reading angles ...
  2520 angles
  reading dihedrals ...
  4682 dihedrals
  reading impropers ...
  84 impropers
################################################################################

min_style cg
minimize 1e-06 1e-06 1000000 10000000
PPPM initialization ...
  G vector (1/distance) = 0.143645
  grid = 45 45 45
  stencil order = 5
  estimated absolute RMS force accuracy = 0.000727466
  estimated relative force accuracy = 2.19074e-06
  3d grid and FFT values/proc = 125000 91125
  update every 1 steps, delay 0 steps, check yes
Step Temp E_pair E_mol TotEng Press
0     663.8298    332.76191    7445.7199    9822.5311   0.31647983
Loop time of 66.5528 on 1 procs for 1392 steps with 1034 atoms

Minimization stats:
  Stopping criterion = energy tolerance
  Energy initial, next-to-last, final =
  Force two-norm initial, final = 2063.77 7.48749
  Force max component initial, final = 1079.2 1.13478
  Final line search alpha, max atom move = 0.00833934 0.00946332
  Iterations, force evaluations = 1392 2780

write_dump all custom pysimm.dump.tmp id q x y z vx vy vz
quit

################################################################################
##################################    Init    ##################################
################################################################################
units           real
atom_style      full
pair_style      lj/cut/coul/long 12.0  12.0
kspace_style    pppm 1e-4
bond_style      harmonic
angle_style     harmonic
dihedral_style  fourier
improper_style  cvff
special_bonds   amber
pair_modify     mix arithmetic
read_data       temp.lmps
  orthogonal box = (-142.971 -142.971 -142.971) to (142.971 142.971 142.971)
  reading atoms ...
  1109 atoms
  reading velocities ...
  1109 velocities
  scanning bonds ...
  scanning angles ...
  scanning dihedrals ...
  scanning impropers ...
  reading bonds ...
  1297 bonds
  reading angles ...
  2700 angles
  reading dihedrals ...
  5013 dihedrals
  reading impropers ...
  90 impropers
################################################################################

min_style cg
minimize 1e-06 1e-06 1000000 10000000
PPPM initialization ...
  G vector (1/distance) = 0.141704
  grid = 45 45 45
  stencil order = 5
  estimated absolute RMS force accuracy = 0.000787084
  estimated relative force accuracy = 2.37028e-06
  3d grid and FFT values/proc = 125000 91125
  update every 1 steps, delay 0 steps, check yes
Step Temp E_pair E_mol TotEng Press
0    715.25934    424.40587    8106.7007     10893.42   0.80202988
Loop time of 66.6466 on 1 procs for 1318 steps with 1109 atoms

Minimization stats:
  Stopping criterion = linesearch alpha is zero
  Energy initial, next-to-last, final =
  Force two-norm initial, final = 2199.51 8.89088
  Force max component initial, final = 773.739 1.22041
  Final line search alpha, max atom move = 1.11185e-10 1.35692e-10
  Iterations, force evaluations = 1318 2684

write_dump all custom pysimm.dump.tmp id q x y z vx vy vz
quit

################################################################################
##################################    Init    ##################################
################################################################################
units           real
atom_style      full
pair_style      lj/cut/coul/long 12.0  12.0
kspace_style    pppm 1e-4
bond_style      harmonic
angle_style     harmonic
dihedral_style  fourier
improper_style  cvff
special_bonds   amber
pair_modify     mix arithmetic
read_data       temp.lmps
  orthogonal box = (-146.298 -146.298 -146.298) to (146.298 146.298 146.298)
  reading atoms ...
  1184 atoms
  reading velocities ...
  1184 velocities
  scanning bonds ...
  scanning angles ...
  scanning dihedrals ...
  scanning impropers ...
  reading bonds ...
  1384 bonds
  reading angles ...
  2880 angles
  reading dihedrals ...
  5344 dihedrals
  reading impropers ...
  96 impropers
################################################################################

min_style cg
minimize 1e-06 1e-06 1000000 10000000
PPPM initialization ...
  G vector (1/distance) = 0.144982
  grid = 48 48 48
  stencil order = 5
  estimated absolute RMS force accuracy = 0.000683662
  estimated relative force accuracy = 2.05883e-06
  3d grid and FFT values/proc = 148877 110592
  update every 1 steps, delay 0 steps, check yes
Step Temp E_pair E_mol TotEng Press
0    609.32593     5355.686    8695.2795     16199.63     54.34127
Loop time of 68.6087 on 1 procs for 1091 steps with 1184 atoms

Minimization stats:
  Stopping criterion = energy tolerance
  Energy initial, next-to-last, final =
  Force two-norm initial, final = 58781.8 7.83674
  Force max component initial, final = 30976.8 0.90133
  Final line search alpha, max atom move = 0.00749956 0.00675958
  Iterations, force evaluations = 1091 2178

write_dump all custom pysimm.dump.tmp id q x y z vx vy vz
quit

################################################################################
##################################    Init    ##################################
################################################################################
units           real
atom_style      full
pair_style      lj/cut/coul/long 12.0  12.0
kspace_style    pppm 1e-4
bond_style      harmonic
angle_style     harmonic
dihedral_style  fourier
improper_style  cvff
special_bonds   amber
pair_modify     mix arithmetic
read_data       temp.lmps
  orthogonal box = (-149.479 -149.479 -149.479) to (149.479 149.479 149.479)
  reading atoms ...
  1259 atoms
  reading velocities ...
  1259 velocities
  scanning bonds ...
  scanning angles ...
  scanning dihedrals ...
  scanning impropers ...
  reading bonds ...
  1471 bonds
  reading angles ...
  3060 angles
  reading dihedrals ...
  5675 dihedrals
  reading impropers ...
  102 impropers
################################################################################

min_style cg
minimize 1e-06 1e-06 1000000 10000000
PPPM initialization ...
  G vector (1/distance) = 0.143275
  grid = 48 48 48
  stencil order = 5
  estimated absolute RMS force accuracy = 0.000732909
  estimated relative force accuracy = 2.20713e-06
  3d grid and FFT values/proc = 148877 110592
  update every 1 steps, delay 0 steps, check yes
Step Temp E_pair E_mol TotEng Press
0    547.19148    1490.3682    8999.5623    12541.821    8.9083341
Loop time of 38.1981 on 1 procs for 617 steps with 1259 atoms

Minimization stats:
  Stopping criterion = energy tolerance
  Energy initial, next-to-last, final =
  Force two-norm initial, final = 12772.3 8.19519
  Force max component initial, final = 7676.79 0.937843
  Final line search alpha, max atom move = 0.0122193 0.0114598
  Iterations, force evaluations = 617 1229

write_dump all custom pysimm.dump.tmp id q x y z vx vy vz
quit

################################################################################
##################################    Init    ##################################
################################################################################
units           real
atom_style      full
pair_style      lj/cut/coul/long 12.0  12.0
kspace_style    pppm 1e-4
bond_style      harmonic
angle_style     harmonic
dihedral_style  fourier
improper_style  cvff
special_bonds   amber
pair_modify     mix arithmetic
read_data       temp.lmps
  orthogonal box = (-152.53 -152.53 -152.53) to (152.53 152.53 152.53)
  reading atoms ...
  1334 atoms
  reading velocities ...
  1334 velocities
  scanning bonds ...
  scanning angles ...
  scanning dihedrals ...
  scanning impropers ...
  reading bonds ...
  1558 bonds
  reading angles ...
  3240 angles
  reading dihedrals ...
  6006 dihedrals
  reading impropers ...
  108 impropers
################################################################################

min_style cg
minimize 1e-06 1e-06 1000000 10000000
PPPM initialization ...
  G vector (1/distance) = 0.141689
  grid = 48 48 48
  stencil order = 5
  estimated absolute RMS force accuracy = 0.000781966
  estimated relative force accuracy = 2.35487e-06
  3d grid and FFT values/proc = 148877 110592
  update every 1 steps, delay 0 steps, check yes
Step Temp E_pair E_mol TotEng Press
0    493.79749    766.55954    9556.8307    12285.455   0.60688602
Loop time of 41.7582 on 1 procs for 670 steps with 1334 atoms

Minimization stats:
  Stopping criterion = energy tolerance
  Energy initial, next-to-last, final =
  Force two-norm initial, final = 3336.01 8.92492
  Force max component initial, final = 2089.35 1.18829
  Final line search alpha, max atom move = 0.00885162 0.0105183
  Iterations, force evaluations = 670 1335

write_dump all custom pysimm.dump.tmp id q x y z vx vy vz
quit

################################################################################
##################################    Init    ##################################
################################################################################
units           real
atom_style      full
pair_style      lj/cut/coul/long 12.0  12.0
kspace_style    pppm 1e-4
bond_style      harmonic
angle_style     harmonic
dihedral_style  fourier
improper_style  cvff
special_bonds   amber
pair_modify     mix arithmetic
read_data       temp.lmps
  orthogonal box = (-155.464 -155.464 -155.464) to (155.464 155.464 155.464)
  reading atoms ...
  1409 atoms
  reading velocities ...
  1409 velocities
  scanning bonds ...
  scanning angles ...
  scanning dihedrals ...
  scanning impropers ...
  reading bonds ...
  1645 bonds
  reading angles ...
  3420 angles
  reading dihedrals ...
  6337 dihedrals
  reading impropers ...
  114 impropers
################################################################################

min_style cg
minimize 1e-06 1e-06 1000000 10000000
PPPM initialization ...
  G vector (1/distance) = 0.143398
  grid = 50 50 50
  stencil order = 5
  estimated absolute RMS force accuracy = 0.000726241
  estimated relative force accuracy = 2.18705e-06
  3d grid and FFT values/proc = 166375 125000
  update every 1 steps, delay 0 steps, check yes
Step Temp E_pair E_mol TotEng Press
0    560.89893    2219.1883    10128.894    14702.164    12.835756
Loop time of 54.2481 on 1 procs for 754 steps with 1409 atoms

Minimization stats:
  Stopping criterion = energy tolerance
  Energy initial, next-to-last, final =
  Force two-norm initial, final = 26675.8 6.58063
  Force max component initial, final = 16527 0.4893
  Final line search alpha, max atom move = 0.0121152 0.00592794
  Iterations, force evaluations = 754 1502

write_dump all custom pysimm.dump.tmp id q x y z vx vy vz
quit

################################################################################
##################################    Init    ##################################
################################################################################
units           real
atom_style      full
pair_style      lj/cut/coul/long 12.0  12.0
kspace_style    pppm 1e-4
bond_style      harmonic
angle_style     harmonic
dihedral_style  fourier
improper_style  cvff
special_bonds   amber
pair_modify     mix arithmetic
read_data       temp.lmps
  orthogonal box = (-158.292 -158.292 -158.292) to (158.292 158.292 158.292)
  reading atoms ...
  1484 atoms
  reading velocities ...
  1484 velocities
  scanning bonds ...
  scanning angles ...
  scanning dihedrals ...
  scanning impropers ...
  reading bonds ...
  1732 bonds
  reading angles ...
  3600 angles
  reading dihedrals ...
  6668 dihedrals
  reading impropers ...
  120 impropers
################################################################################

min_style cg
minimize 1e-06 1e-06 1000000 10000000
PPPM initialization ...
  G vector (1/distance) = 0.141982
  grid = 50 50 50
  stencil order = 5
  estimated absolute RMS force accuracy = 0.000769641
  estimated relative force accuracy = 2.31775e-06
  3d grid and FFT values/proc = 166375 125000
  update every 1 steps, delay 0 steps, check yes
Step Temp E_pair E_mol TotEng Press
0    575.34595    579.30765    10827.054    13949.703   -1.6772463
Loop time of 49.9412 on 1 procs for 681 steps with 1484 atoms

Minimization stats:
  Stopping criterion = energy tolerance
  Energy initial, next-to-last, final =
  Force two-norm initial, final = 2682.29 9.70438
  Force max component initial, final = 838.308 0.906821
  Final line search alpha, max atom move = 0.00759018 0.00688293
  Iterations, force evaluations = 681 1359

write_dump all custom pysimm.dump.tmp id q x y z vx vy vz
quit

################################################################################
##################################    Init    ##################################
################################################################################
units           real
atom_style      full
pair_style      lj/cut/coul/long 12.0  12.0
kspace_style    pppm 1e-4
bond_style      harmonic
angle_style     harmonic
dihedral_style  fourier
improper_style  cvff
special_bonds   amber
pair_modify     mix arithmetic
read_data       temp.lmps
  orthogonal box = (-161.021 -161.021 -161.021) to (161.021 161.021 161.021)
  reading atoms ...
  1559 atoms
  reading velocities ...
  1559 velocities
  scanning bonds ...
  scanning angles ...
  scanning dihedrals ...
  scanning impropers ...
  reading bonds ...
  1819 bonds
  reading angles ...
  3780 angles
  reading dihedrals ...
  6999 dihedrals
  reading impropers ...
  126 impropers
################################################################################

min_style cg
minimize 1e-06 1e-06 1000000 10000000
PPPM initialization ...
  G vector (1/distance) = 0.140656
  grid = 50 50 50
  stencil order = 5
  estimated absolute RMS force accuracy = 0.000812936
  estimated relative force accuracy = 2.44813e-06
  3d grid and FFT values/proc = 166375 125000
  update every 1 steps, delay 0 steps, check yes
Step Temp E_pair E_mol TotEng Press
0    760.25365      2176.26    11461.255     17168.21    12.090922
Loop time of 50.6062 on 1 procs for 715 steps with 1559 atoms

Minimization stats:
  Stopping criterion = energy tolerance
  Energy initial, next-to-last, final =
  Force two-norm initial, final = 27267.3 9.482
  Force max component initial, final = 15598.1 0.931978
  Final line search alpha, max atom move = 0.0108675 0.0101283
  Iterations, force evaluations = 715 1425

write_dump all custom pysimm.dump.tmp id q x y z vx vy vz
quit

################################################################################
##################################    Init    ##################################
################################################################################
units           real
atom_style      full
pair_style      lj/cut/coul/long 12.0  12.0
kspace_style    pppm 1e-4
bond_style      harmonic
angle_style     harmonic
dihedral_style  fourier
improper_style  cvff
special_bonds   amber
pair_modify     mix arithmetic
read_data       temp.lmps
  orthogonal box = (-163.661 -163.661 -163.661) to (163.661 163.661 163.661)
  reading atoms ...
  1634 atoms
  reading velocities ...
  1634 velocities
  scanning bonds ...
  scanning angles ...
  scanning dihedrals ...
  scanning impropers ...
  reading bonds ...
  1906 bonds
  reading angles ...
  3960 angles
  reading dihedrals ...
  7330 dihedrals
  reading impropers ...
  132 impropers
################################################################################

min_style cg
minimize 1e-06 1e-06 1000000 10000000
PPPM initialization ...
  G vector (1/distance) = 0.145431
  grid = 54 54 54
  stencil order = 5
  estimated absolute RMS force accuracy = 0.000663598
  estimated relative force accuracy = 1.99841e-06
  3d grid and FFT values/proc = 205379 157464
  update every 1 steps, delay 0 steps, check yes
Step Temp E_pair E_mol TotEng Press
0    730.98683    17922.266    11998.174    33478.637    134.37703
Loop time of 154.146 on 1 procs for 1492 steps with 1634 atoms

Minimization stats:
  Stopping criterion = energy tolerance
  Energy initial, next-to-last, final =
  Force two-norm initial, final = 236533 10.3477
  Force max component initial, final = 156639 1.25923
  Final line search alpha, max atom move = 0.00607423 0.00764886
  Iterations, force evaluations = 1492 2978

write_dump all custom pysimm.dump.tmp id q x y z vx vy vz
quit

################################################################################
##################################    Init    ##################################
################################################################################
units           real
atom_style      full
pair_style      lj/cut/coul/long 12.0  12.0
kspace_style    pppm 1e-4
bond_style      harmonic
angle_style     harmonic
dihedral_style  fourier
improper_style  cvff
special_bonds   amber
pair_modify     mix arithmetic
read_data       temp.lmps
  orthogonal box = (-166.219 -166.219 -166.219) to (166.219 166.219 166.219)
  reading atoms ...
  1709 atoms
  reading velocities ...
  1709 velocities
  scanning bonds ...
  scanning angles ...
  scanning dihedrals ...
  scanning impropers ...
  reading bonds ...
  1993 bonds
  reading angles ...
  4140 angles
  reading dihedrals ...
  7661 dihedrals
  reading impropers ...
  138 impropers
################################################################################

min_style cg
minimize 1e-06 1e-06 1000000 10000000
PPPM initialization ...
  G vector (1/distance) = 0.144196
  grid = 54 54 54
  stencil order = 5
  estimated absolute RMS force accuracy = 0.000698194
  estimated relative force accuracy = 2.10259e-06
  3d grid and FFT values/proc = 205379 157464
  update every 1 steps, delay 0 steps, check yes
Step Temp E_pair E_mol TotEng Press
0    706.03387     29160.61    12407.244    45162.429    211.78652
Loop time of 92.8526 on 1 procs for 895 steps with 1709 atoms

Minimization stats:
  Stopping criterion = energy tolerance
  Energy initial, next-to-last, final =
  Force two-norm initial, final = 354553 10.0808
  Force max component initial, final = 172528 1.53042
  Final line search alpha, max atom move = 0.0071219 0.0108995
  Iterations, force evaluations = 895 1784

write_dump all custom pysimm.dump.tmp id q x y z vx vy vz
quit

################################################################################
##################################    Init    ##################################
################################################################################
units           real
atom_style      full
pair_style      lj/cut/coul/long 12.0  12.0
kspace_style    pppm 1e-4
bond_style      harmonic
angle_style     harmonic
dihedral_style  fourier
improper_style  cvff
special_bonds   amber
pair_modify     mix arithmetic
read_data       temp.lmps
  orthogonal box = (-168.7 -168.7 -168.7) to (168.7 168.7 168.7)
  reading atoms ...
  1784 atoms
  reading velocities ...
  1784 velocities
  scanning bonds ...
  scanning angles ...
  scanning dihedrals ...
  scanning impropers ...
  reading bonds ...
  2080 bonds
  reading angles ...
  4320 angles
  reading dihedrals ...
  7992 dihedrals
  reading impropers ...
  144 impropers
################################################################################

min_style cg
minimize 1e-06 1e-06 1000000 10000000
PPPM initialization ...
  G vector (1/distance) = 0.143024
  grid = 54 54 54
  stencil order = 5
  estimated absolute RMS force accuracy = 0.000732689
  estimated relative force accuracy = 2.20647e-06
  3d grid and FFT values/proc = 205379 157464
  update every 1 steps, delay 0 steps, check yes
Step Temp E_pair E_mol TotEng Press
0    628.12333    1720.1799    13246.147    18304.667     5.477709
Loop time of 156.924 on 1 procs for 1495 steps with 1784 atoms

Minimization stats:
  Stopping criterion = energy tolerance
  Energy initial, next-to-last, final =
  Force two-norm initial, final = 16307.7 9.35304
  Force max component initial, final = 9937.24 1.70767
  Final line search alpha, max atom move = 0.00735538 0.0125605
  Iterations, force evaluations = 1495 2984

write_dump all custom pysimm.dump.tmp id q x y z vx vy vz
quit

################################################################################
##################################    Init    ##################################
################################################################################
units           real
atom_style      full
pair_style      lj/cut/coul/long 12.0  12.0
kspace_style    pppm 1e-4
bond_style      harmonic
angle_style     harmonic
dihedral_style  fourier
improper_style  cvff
special_bonds   amber
pair_modify     mix arithmetic
read_data       temp.lmps
  orthogonal box = (-171.111 -171.111 -171.111) to (171.111 171.111 171.111)
  reading atoms ...
  1859 atoms
  reading velocities ...
  1859 velocities
  scanning bonds ...
  scanning angles ...
  scanning dihedrals ...
  scanning impropers ...
  reading bonds ...
  2167 bonds
  reading angles ...
  4500 angles
  reading dihedrals ...
  8323 dihedrals
  reading impropers ...
  150 impropers
################################################################################

min_style cg
minimize 1e-06 1e-06 1000000 10000000
PPPM initialization ...
  G vector (1/distance) = 0.141911
  grid = 54 54 54
  stencil order = 5
  estimated absolute RMS force accuracy = 0.000767099
  estimated relative force accuracy = 2.3101e-06
  3d grid and FFT values/proc = 205379 157464
  update every 1 steps, delay 0 steps, check yes
Step Temp E_pair E_mol TotEng Press
0    540.50302    3728.7174    13716.362    20438.572    17.626415
Loop time of 117.164 on 1 procs for 1110 steps with 1859 atoms

Minimization stats:
  Stopping criterion = energy tolerance
  Energy initial, next-to-last, final =
  Force two-norm initial, final = 26335.8 9.26977
  Force max component initial, final = 10708 1.37285
  Final line search alpha, max atom move = 0.00754501 0.0103582
  Iterations, force evaluations = 1110 2215

write_dump all custom pysimm.dump.tmp id q x y z vx vy vz
quit

################################################################################
##################################    Init    ##################################
################################################################################
units           real
atom_style      full
pair_style      lj/cut/coul/long 12.0  12.0
kspace_style    pppm 1e-4
bond_style      harmonic
angle_style     harmonic
dihedral_style  fourier
improper_style  cvff
special_bonds   amber
pair_modify     mix arithmetic
read_data       temp.lmps
  orthogonal box = (-173.455 -173.455 -173.455) to (173.455 173.455 173.455)
  reading atoms ...
  1934 atoms
  reading velocities ...
  1934 velocities
  scanning bonds ...
  scanning angles ...
  scanning dihedrals ...
  scanning impropers ...
  reading bonds ...
  2254 bonds
  reading angles ...
  4680 angles
  reading dihedrals ...
  8654 dihedrals
  reading impropers ...
  156 impropers
################################################################################

min_style cg
minimize 1e-06 1e-06 1000000 10000000
PPPM initialization ...
  G vector (1/distance) = 0.140854
  grid = 54 54 54
  stencil order = 5
  estimated absolute RMS force accuracy = 0.000801447
  estimated relative force accuracy = 2.41353e-06
  3d grid and FFT values/proc = 205379 157464
  update every 1 steps, delay 0 steps, check yes
Step Temp E_pair E_mol TotEng Press
0    439.42629    26059.543    13944.939    42536.415    163.46798
Loop time of 79.0181 on 1 procs for 737 steps with 1934 atoms

Minimization stats:
  Stopping criterion = energy tolerance
  Energy initial, next-to-last, final =
  Force two-norm initial, final = 443729 12.3652
  Force max component initial, final = 277195 1.15786
  Final line search alpha, max atom move = 0.0057192 0.00662203
  Iterations, force evaluations = 737 1468

write_dump all custom pysimm.dump.tmp id q x y z vx vy vz
quit

################################################################################
##################################    Init    ##################################
################################################################################
units           real
atom_style      full
pair_style      lj/cut/coul/long 12.0  12.0
kspace_style    pppm 1e-4
bond_style      harmonic
angle_style     harmonic
dihedral_style  fourier
improper_style  cvff
special_bonds   amber
pair_modify     mix arithmetic
read_data       temp.lmps
  orthogonal box = (-175.737 -175.737 -175.737) to (175.737 175.737 175.737)
  reading atoms ...
  2009 atoms
  reading velocities ...
  2009 velocities
  scanning bonds ...
  scanning angles ...
  scanning dihedrals ...
  scanning impropers ...
  reading bonds ...
  2341 bonds
  reading angles ...
  4860 angles
  reading dihedrals ...
  8985 dihedrals
  reading impropers ...
  162 impropers
################################################################################

min_style cg
minimize 1e-06 1e-06 1000000 10000000
PPPM initialization ...
  G vector (1/distance) = 0.14817
  grid = 60 60 60
  stencil order = 5
  estimated absolute RMS force accuracy = 0.000587619
  estimated relative force accuracy = 1.7696e-06
  3d grid and FFT values/proc = 274625 216000
  update every 1 steps, delay 0 steps, check yes
Step Temp E_pair E_mol TotEng Press
0     456.9858    19957.372    14654.685     37347.33    117.73005
Loop time of 160.496 on 1 procs for 1156 steps with 2009 atoms

Minimization stats:
  Stopping criterion = energy tolerance
  Energy initial, next-to-last, final =
  Force two-norm initial, final = 249951 11.2409
  Force max component initial, final = 135457 1.77945
  Final line search alpha, max atom move = 0.00769092 0.0136856
  Iterations, force evaluations = 1156 2307

write_dump all custom pysimm.dump.tmp id q x y z vx vy vz
quit

################################################################################
##################################    Init    ##################################
################################################################################
units           real
atom_style      full
pair_style      lj/cut/coul/long 12.0  12.0
kspace_style    pppm 1e-4
bond_style      harmonic
angle_style     harmonic
dihedral_style  fourier
improper_style  cvff
special_bonds   amber
pair_modify     mix arithmetic
read_data       temp.lmps
  orthogonal box = (-177.962 -177.962 -177.962) to (177.962 177.962 177.962)
  reading atoms ...
  2084 atoms
  reading velocities ...
  2084 velocities
  scanning bonds ...
  scanning angles ...
  scanning dihedrals ...
  scanning impropers ...
  reading bonds ...
  2428 bonds
  reading angles ...
  5040 angles
  reading dihedrals ...
  9316 dihedrals
  reading impropers ...
  168 impropers
################################################################################

min_style cg
minimize 1e-06 1e-06 1000000 10000000
PPPM initialization ...
  G vector (1/distance) = 0.14716
  grid = 60 60 60
  stencil order = 5
  estimated absolute RMS force accuracy = 0.000612977
  estimated relative force accuracy = 1.84596e-06
  3d grid and FFT values/proc = 274625 216000
  update every 1 steps, delay 0 steps, check yes
Step Temp E_pair E_mol TotEng Press
0    546.83558    8042.7453    15224.031    26662.093    40.990307
Loop time of 178.963 on 1 procs for 1269 steps with 2084 atoms

Minimization stats:
  Stopping criterion = energy tolerance
  Energy initial, next-to-last, final =
  Force two-norm initial, final = 72900.9 10.6146
  Force max component initial, final = 32319.1 1.69539
  Final line search alpha, max atom move = 0.00614809 0.0104234
  Iterations, force evaluations = 1269 2532

write_dump all custom pysimm.dump.tmp id q x y z vx vy vz
quit

################################################################################
##################################    Init    ##################################
################################################################################
units           real
atom_style      full
pair_style      lj/cut/coul/long 12.0  12.0
kspace_style    pppm 1e-4
bond_style      harmonic
angle_style     harmonic
dihedral_style  fourier
improper_style  cvff
special_bonds   amber
pair_modify     mix arithmetic
read_data       temp.lmps
  orthogonal box = (-180.133 -180.133 -180.133) to (180.133 180.133 180.133)
  reading atoms ...
  2159 atoms
  reading velocities ...
  2159 velocities
  scanning bonds ...
  scanning angles ...
  scanning dihedrals ...
  scanning impropers ...
  reading bonds ...
  2515 bonds
  reading angles ...
  5220 angles
  reading dihedrals ...
  9647 dihedrals
  reading impropers ...
  174 impropers
################################################################################

min_style cg
minimize 1e-06 1e-06 1000000 10000000
PPPM initialization ...
  G vector (1/distance) = 0.146188
  grid = 60 60 60
  stencil order = 5
  estimated absolute RMS force accuracy = 0.000638283
  estimated relative force accuracy = 1.92217e-06
  3d grid and FFT values/proc = 274625 216000
  update every 1 steps, delay 0 steps, check yes
Step Temp E_pair E_mol TotEng Press
0    502.31356    19823.158    15734.233    38788.567    107.98074
Loop time of 143.279 on 1 procs for 1023 steps with 2159 atoms

Minimization stats:
  Stopping criterion = energy tolerance
  Energy initial, next-to-last, final =
  Force two-norm initial, final = 294616 8.85787
  Force max component initial, final = 186250 1.26253
  Final line search alpha, max atom move = 0.0071586 0.00903792
  Iterations, force evaluations = 1023 2039

write_dump all custom pysimm.dump.tmp id q x y z vx vy vz
quit

################################################################################
##################################    Init    ##################################
################################################################################
units           real
atom_style      full
pair_style      lj/cut/coul/long 12.0  12.0
kspace_style    pppm 1e-4
bond_style      harmonic
angle_style     harmonic
dihedral_style  fourier
improper_style  cvff
special_bonds   amber
pair_modify     mix arithmetic
read_data       temp.lmps
  orthogonal box = (-182.252 -182.252 -182.252) to (182.252 182.252 182.252)
  reading atoms ...
  2234 atoms
  reading velocities ...
  2234 velocities
  scanning bonds ...
  scanning angles ...
  scanning dihedrals ...
  scanning impropers ...
  reading bonds ...
  2602 bonds
  reading angles ...
  5400 angles
  reading dihedrals ...
  9978 dihedrals
  reading impropers ...
  180 impropers
################################################################################

min_style cg
minimize 1e-06 1e-06 1000000 10000000
PPPM initialization ...
  G vector (1/distance) = 0.145253
  grid = 60 60 60
  stencil order = 5
  estimated absolute RMS force accuracy = 0.000663534
  estimated relative force accuracy = 1.99821e-06
  3d grid and FFT values/proc = 274625 216000
  update every 1 steps, delay 0 steps, check yes
Step Temp E_pair E_mol TotEng Press
0    479.06638    2726.8671    16287.814    22203.419    6.7127771
Loop time of 159.76 on 1 procs for 1112 steps with 2234 atoms

Minimization stats:
  Stopping criterion = energy tolerance
  Energy initial, next-to-last, final =
  Force two-norm initial, final = 16270.8 10.5126
  Force max component initial, final = 9144.9 1.18814
  Final line search alpha, max atom move = 0.00582855 0.0069251
  Iterations, force evaluations = 1112 2218

write_dump all custom pysimm.dump.tmp id q x y z vx vy vz
quit

################################################################################
##################################    Init    ##################################
################################################################################
units           real
atom_style      full
pair_style      lj/cut/coul/long 12.0  12.0
kspace_style    pppm 1e-4
bond_style      harmonic
angle_style     harmonic
dihedral_style  fourier
improper_style  cvff
special_bonds   amber
pair_modify     mix arithmetic
read_data       temp.lmps
  orthogonal box = (-184.323 -184.323 -184.323) to (184.323 184.323 184.323)
  reading atoms ...
  2309 atoms
  reading velocities ...
  2309 velocities
  scanning bonds ...
  scanning angles ...
  scanning dihedrals ...
  scanning impropers ...
  reading bonds ...
  2689 bonds
  reading angles ...
  5580 angles
  reading dihedrals ...
  10309 dihedrals
  reading impropers ...
  186 impropers
################################################################################

min_style cg
minimize 1e-06 1e-06 1000000 10000000
PPPM initialization ...
  G vector (1/distance) = 0.144353
  grid = 60 60 60
  stencil order = 5
  estimated absolute RMS force accuracy = 0.00068873
  estimated relative force accuracy = 2.07409e-06
  3d grid and FFT values/proc = 274625 216000
  update every 1 steps, delay 0 steps, check yes
Step Temp E_pair E_mol TotEng Press
0    491.54921    3685.6381    16712.078    23779.432    11.940384
Loop time of 110.148 on 1 procs for 721 steps with 2309 atoms

Minimization stats:
  Stopping criterion = linesearch alpha is zero
  Energy initial, next-to-last, final =
  Force two-norm initial, final = 29847.6 9.8496
  Force max component initial, final = 16842.2 0.754799
  Final line search alpha, max atom move = 1.23549e-10 9.32544e-11
  Iterations, force evaluations = 721 1487

write_dump all custom pysimm.dump.tmp id q x y z vx vy vz
quit

################################################################################
##################################    Init    ##################################
################################################################################
units           real
atom_style      full
pair_style      lj/cut/coul/long 12.0  12.0
kspace_style    pppm 1e-4
bond_style      harmonic
angle_style     harmonic
dihedral_style  fourier
improper_style  cvff
special_bonds   amber
pair_modify     mix arithmetic
read_data       temp.lmps
  orthogonal box = (-186.349 -186.349 -186.349) to (186.349 186.349 186.349)
  reading atoms ...
  2384 atoms
  reading velocities ...
  2384 velocities
  scanning bonds ...
  scanning angles ...
  scanning dihedrals ...
  scanning impropers ...
  reading bonds ...
  2776 bonds
  reading angles ...
  5760 angles
  reading dihedrals ...
  10640 dihedrals
  reading impropers ...
  192 impropers
################################################################################

min_style cg
minimize 1e-06 1e-06 1000000 10000000
PPPM initialization ...
  G vector (1/distance) = 0.143487
  grid = 60 60 60
  stencil order = 5
  estimated absolute RMS force accuracy = 0.000713874
  estimated relative force accuracy = 2.14981e-06
  3d grid and FFT values/proc = 274625 216000
  update every 1 steps, delay 0 steps, check yes
Step Temp E_pair E_mol TotEng Press
0    349.48411    4738.6986    17306.202    24527.381     15.44123
Loop time of 142.82 on 1 procs for 940 steps with 2384 atoms

Minimization stats:
  Stopping criterion = energy tolerance
  Energy initial, next-to-last, final =
  Force two-norm initial, final = 35687.8 9.56903
  Force max component initial, final = 14271.3 1.33418
  Final line search alpha, max atom move = 0.00729276 0.00972985
  Iterations, force evaluations = 940 1875

write_dump all custom pysimm.dump.tmp id q x y z vx vy vz
quit

################################################################################
##################################    Init    ##################################
################################################################################
units           real
atom_style      full
pair_style      lj/cut/coul/long 12.0  12.0
kspace_style    pppm 1e-4
bond_style      harmonic
angle_style     harmonic
dihedral_style  fourier
improper_style  cvff
special_bonds   amber
pair_modify     mix arithmetic
read_data       temp.lmps
  orthogonal box = (-188.332 -188.332 -188.332) to (188.332 188.332 188.332)
  reading atoms ...
  2459 atoms
  reading velocities ...
  2459 velocities
  scanning bonds ...
  scanning angles ...
  scanning dihedrals ...
  scanning impropers ...
  reading bonds ...
  2863 bonds
  reading angles ...
  5940 angles
  reading dihedrals ...
  10971 dihedrals
  reading impropers ...
  198 impropers
################################################################################

min_style cg
minimize 1e-06 1e-06 1000000 10000000
PPPM initialization ...
  G vector (1/distance) = 0.142652
  grid = 60 60 60
  stencil order = 5
  estimated absolute RMS force accuracy = 0.00073897
  estimated relative force accuracy = 2.22539e-06
  3d grid and FFT values/proc = 274625 216000
  update every 1 steps, delay 0 steps, check yes
Step Temp E_pair E_mol TotEng Press
0     382.2605    6670.5741    17782.538     27253.87    24.413078
Loop time of 135.292 on 1 procs for 897 steps with 2459 atoms

Minimization stats:
  Stopping criterion = energy tolerance
  Energy initial, next-to-last, final =
  Force two-norm initial, final = 65350 9.7346
  Force max component initial, final = 43535.2 0.921266
  Final line search alpha, max atom move = 0.00873923 0.00805115
  Iterations, force evaluations = 897 1785

write_dump all custom pysimm.dump.tmp id q x y z vx vy vz
quit

################################################################################
##################################    Init    ##################################
################################################################################
units           real
atom_style      full
pair_style      lj/cut/coul/long 12.0  12.0
kspace_style    pppm 1e-4
bond_style      harmonic
angle_style     harmonic
dihedral_style  fourier
improper_style  cvff
special_bonds   amber
pair_modify     mix arithmetic
read_data       temp.lmps
  orthogonal box = (-190.273 -190.273 -190.273) to (190.273 190.273 190.273)
  reading atoms ...
  2534 atoms
  reading velocities ...
  2534 velocities
  scanning bonds ...
  scanning angles ...
  scanning dihedrals ...
  scanning impropers ...
  reading bonds ...
  2950 bonds
  reading angles ...
  6120 angles
  reading dihedrals ...
  11302 dihedrals
  reading impropers ...
  204 impropers
################################################################################

min_style cg
minimize 1e-06 1e-06 1000000 10000000
PPPM initialization ...
  G vector (1/distance) = 0.141849
  grid = 60 60 60
  stencil order = 5
  estimated absolute RMS force accuracy = 0.000764026
  estimated relative force accuracy = 2.30084e-06
  3d grid and FFT values/proc = 274625 216000
  update every 1 steps, delay 0 steps, check yes
Step Temp E_pair E_mol TotEng Press
0    464.68113    6914.3775    18357.719    28780.621    24.624835
Loop time of 108.265 on 1 procs for 713 steps with 2534 atoms

Minimization stats:
  Stopping criterion = energy tolerance
  Energy initial, next-to-last, final =
  Force two-norm initial, final = 69842.9 9.78865
  Force max component initial, final = 43826.7 0.825809
  Final line search alpha, max atom move = 0.00877325 0.00724502
  Iterations, force evaluations = 713 1417

write_dump all custom pysimm.dump.tmp id q x y z vx vy vz
quit

################################################################################
##################################    Init    ##################################
################################################################################
units           real
atom_style      full
pair_style      lj/cut/coul/long 12.0  12.0
kspace_style    pppm 1e-4
bond_style      harmonic
angle_style     harmonic
dihedral_style  fourier
improper_style  cvff
special_bonds   amber
pair_modify     mix arithmetic
read_data       temp.lmps
  orthogonal box = (-192.176 -192.176 -192.176) to (192.176 192.176 192.176)
  reading atoms ...
  2609 atoms
  reading velocities ...
  2609 velocities
  scanning bonds ...
  scanning angles ...
  scanning dihedrals ...
  scanning impropers ...
  reading bonds ...
  3037 bonds
  reading angles ...
  6300 angles
  reading dihedrals ...
  11633 dihedrals
  reading impropers ...
  210 impropers
################################################################################

min_style cg
minimize 1e-06 1e-06 1000000 10000000
PPPM initialization ...
  G vector (1/distance) = 0.141076
  grid = 60 60 60
  stencil order = 5
  estimated absolute RMS force accuracy = 0.00078905
  estimated relative force accuracy = 2.3762e-06
  3d grid and FFT values/proc = 274625 216000
  update every 1 steps, delay 0 steps, check yes
Step Temp E_pair E_mol TotEng Press
0    357.68164    7685.5522    18755.757    29221.909    26.807567
Loop time of 151.521 on 1 procs for 994 steps with 2609 atoms

Minimization stats:
  Stopping criterion = energy tolerance
  Energy initial, next-to-last, final =
  Force two-norm initial, final = 56126 10.58
  Force max component initial, final = 24012.2 0.936438
  Final line search alpha, max atom move = 0.00192343 0.00180118
  Iterations, force evaluations = 994 1987

write_dump all custom pysimm.dump.tmp id q x y z vx vy vz
quit

################################################################################
##################################    Init    ##################################
################################################################################
units           real
atom_style      full
pair_style      lj/cut/coul/long 12.0  12.0
kspace_style    pppm 1e-4
bond_style      harmonic
angle_style     harmonic
dihedral_style  fourier
improper_style  cvff
special_bonds   amber
pair_modify     mix arithmetic
read_data       temp.lmps
  orthogonal box = (-194.042 -194.042 -194.042) to (194.042 194.042 194.042)
  reading atoms ...
  2684 atoms
  reading velocities ...
  2684 velocities
  scanning bonds ...
  scanning angles ...
  scanning dihedrals ...
  scanning impropers ...
  reading bonds ...
  3124 bonds
  reading angles ...
  6480 angles
  reading dihedrals ...
  11964 dihedrals
  reading impropers ...
  216 impropers
################################################################################

min_style cg
minimize 1e-06 1e-06 1000000 10000000
PPPM initialization ...
  G vector (1/distance) = 0.145401
  grid = 64 64 64
  stencil order = 5
  estimated absolute RMS force accuracy = 0.000657122
  estimated relative force accuracy = 1.9789e-06
  3d grid and FFT values/proc = 328509 262144
  update every 1 steps, delay 0 steps, check yes
Step Temp E_pair E_mol TotEng Press
0    353.44055    8340.4163    19418.265    30585.327    29.087047
Loop time of 155.28 on 1 procs for 817 steps with 2684 atoms

Minimization stats:
  Stopping criterion = energy tolerance
  Energy initial, next-to-last, final =
  Force two-norm initial, final = 65484.3 9.15935
  Force max component initial, final = 30266.6 0.711886
  Final line search alpha, max atom move = 0.0106163 0.0075576
  Iterations, force evaluations = 817 1629

write_dump all custom pysimm.dump.tmp id q x y z vx vy vz
quit

################################################################################
##################################    Init    ##################################
################################################################################
units           real
atom_style      full
pair_style      lj/cut/coul/long 12.0  12.0
kspace_style    pppm 1e-4
bond_style      harmonic
angle_style     harmonic
dihedral_style  fourier
improper_style  cvff
special_bonds   amber
pair_modify     mix arithmetic
read_data       temp.lmps
  orthogonal box = (-195.873 -195.873 -195.873) to (195.873 195.873 195.873)
  reading atoms ...
  2759 atoms
  reading velocities ...
  2759 velocities
  scanning bonds ...
  scanning angles ...
  scanning dihedrals ...
  scanning impropers ...
  reading bonds ...
  3211 bonds
  reading angles ...
  6660 angles
  reading dihedrals ...
  12295 dihedrals
  reading impropers ...
  222 impropers
################################################################################

min_style cg
minimize 1e-06 1e-06 1000000 10000000
PPPM initialization ...
  G vector (1/distance) = 0.144653
  grid = 64 64 64
  stencil order = 5
  estimated absolute RMS force accuracy = 0.000677885
  estimated relative force accuracy = 2.04143e-06
  3d grid and FFT values/proc = 328509 262144
  update every 1 steps, delay 0 steps, check yes
Step Temp E_pair E_mol TotEng Press
0    311.01303    10081.554    19915.922    32554.338    35.963941
Loop time of 173.606 on 1 procs for 907 steps with 2759 atoms

Minimization stats:
  Stopping criterion = linesearch alpha is zero
  Energy initial, next-to-last, final =
  Force two-norm initial, final = 56405.2 10.9115
  Force max component initial, final = 19004.7 1.32585
  Final line search alpha, max atom move = 5.7388e-11 7.60879e-11
  Iterations, force evaluations = 907 1861

write_dump all custom pysimm.dump.tmp id q x y z vx vy vz
quit

################################################################################
##################################    Init    ##################################
################################################################################
units           real
atom_style      full
pair_style      lj/cut/coul/long 12.0  12.0
kspace_style    pppm 1e-4
bond_style      harmonic
angle_style     harmonic
dihedral_style  fourier
improper_style  cvff
special_bonds   amber
pair_modify     mix arithmetic
read_data       temp.lmps
  orthogonal box = (-197.67 -197.67 -197.67) to (197.67 197.67 197.67)
  reading atoms ...
  2834 atoms
  reading velocities ...
  2834 velocities
  scanning bonds ...
  scanning angles ...
  scanning dihedrals ...
  scanning impropers ...
  reading bonds ...
  3298 bonds
  reading angles ...
  6840 angles
  reading dihedrals ...
  12626 dihedrals
  reading impropers ...
  228 impropers
################################################################################

min_style cg
minimize 1e-06 1e-06 1000000 10000000
PPPM initialization ...
  G vector (1/distance) = 0.143927
  grid = 64 64 64
  stencil order = 5
  estimated absolute RMS force accuracy = 0.000698613
  estimated relative force accuracy = 2.10385e-06
  3d grid and FFT values/proc = 328509 262144
  update every 1 steps, delay 0 steps, check yes
Step Temp E_pair E_mol TotEng Press
0    350.49789    3749.0744    20571.325    27280.226    6.5742565
Loop time of 211.594 on 1 procs for 1135 steps with 2834 atoms

Minimization stats:
  Stopping criterion = energy tolerance
  Energy initial, next-to-last, final =
  Force two-norm initial, final = 15417.5 10.8999
  Force max component initial, final = 5229.49 1.20029
  Final line search alpha, max atom move = 0.00732664 0.00879408
  Iterations, force evaluations = 1135 2263

write_dump all custom pysimm.dump.tmp id q x y z vx vy vz
quit

################################################################################
##################################    Init    ##################################
################################################################################
units           real
atom_style      full
pair_style      lj/cut/coul/long 12.0  12.0
kspace_style    pppm 1e-4
bond_style      harmonic
angle_style     harmonic
dihedral_style  fourier
improper_style  cvff
special_bonds   amber
pair_modify     mix arithmetic
read_data       temp.lmps
  orthogonal box = (-199.435 -199.435 -199.435) to (199.435 199.435 199.435)
  reading atoms ...
  2909 atoms
  reading velocities ...
  2909 velocities
  scanning bonds ...
  scanning angles ...
  scanning dihedrals ...
  scanning impropers ...
  reading bonds ...
  3385 bonds
  reading angles ...
  7020 angles
  reading dihedrals ...
  12957 dihedrals
  reading impropers ...
  234 impropers
################################################################################

min_style cg
minimize 1e-06 1e-06 1000000 10000000
PPPM initialization ...
  G vector (1/distance) = 0.143224
  grid = 64 64 64
  stencil order = 5
  estimated absolute RMS force accuracy = 0.000719306
  estimated relative force accuracy = 2.16617e-06
  3d grid and FFT values/proc = 328509 262144
  update every 1 steps, delay 0 steps, check yes
Step Temp E_pair E_mol TotEng Press
0    389.86065    11102.527    21074.523    35556.439    38.070513
Loop time of 193.134 on 1 procs for 1027 steps with 2909 atoms

Minimization stats:
  Stopping criterion = energy tolerance
  Energy initial, next-to-last, final =
  Force two-norm initial, final = 130701 11.5628
  Force max component initial, final = 78904.3 1.11235
  Final line search alpha, max atom move = 0.00662798 0.00737264
  Iterations, force evaluations = 1027 2049

write_dump all custom pysimm.dump.tmp id q x y z vx vy vz
quit

################################################################################
##################################    Init    ##################################
################################################################################
units           real
atom_style      full
pair_style      lj/cut/coul/long 12.0  12.0
kspace_style    pppm 1e-4
bond_style      harmonic
angle_style     harmonic
dihedral_style  fourier
improper_style  cvff
special_bonds   amber
pair_modify     mix arithmetic
read_data       temp.lmps
  orthogonal box = (-201.169 -201.169 -201.169) to (201.169 201.169 201.169)
  reading atoms ...
  2984 atoms
  reading velocities ...
  2984 velocities
  scanning bonds ...
  scanning angles ...
  scanning dihedrals ...
  scanning impropers ...
  reading bonds ...
  3472 bonds
  reading angles ...
  7200 angles
  reading dihedrals ...
  13288 dihedrals
  reading impropers ...
  240 impropers
################################################################################

min_style cg
minimize 1e-06 1e-06 1000000 10000000
PPPM initialization ...
  G vector (1/distance) = 0.142542
  grid = 64 64 64
  stencil order = 5
  estimated absolute RMS force accuracy = 0.000739969
  estimated relative force accuracy = 2.2284e-06
  3d grid and FFT values/proc = 328509 262144
  update every 1 steps, delay 0 steps, check yes
Step Temp E_pair E_mol TotEng Press
0    349.91671    16410.933    21757.262    41279.569     59.02283
Loop time of 194.806 on 1 procs for 919 steps with 2984 atoms

Minimization stats:
  Stopping criterion = energy tolerance
  Energy initial, next-to-last, final =
  Force two-norm initial, final = 223453 9.96143
  Force max component initial, final = 118336 1.65839
  Final line search alpha, max atom move = 0.00798719 0.0132459
  Iterations, force evaluations = 919 1833

write_dump all custom pysimm.dump.tmp id q x y z vx vy vz
quit

################################################################################
##################################    Init    ##################################
################################################################################
units           real
atom_style      full
pair_style      lj/cut/coul/long 12.0  12.0
kspace_style    pppm 1e-4
bond_style      harmonic
angle_style     harmonic
dihedral_style  fourier
improper_style  cvff
special_bonds   amber
pair_modify     mix arithmetic
read_data       temp.lmps
  orthogonal box = (-202.874 -202.874 -202.874) to (202.874 202.874 202.874)
  reading atoms ...
  3059 atoms
  reading velocities ...
  3059 velocities
  scanning bonds ...
  scanning angles ...
  scanning dihedrals ...
  scanning impropers ...
  reading bonds ...
  3559 bonds
  reading angles ...
  7380 angles
  reading dihedrals ...
  13619 dihedrals
  reading impropers ...
  246 impropers
################################################################################

min_style cg
minimize 1e-06 1e-06 1000000 10000000
PPPM initialization ...
  G vector (1/distance) = 0.141881
  grid = 64 64 64
  stencil order = 5
  estimated absolute RMS force accuracy = 0.000760606
  estimated relative force accuracy = 2.29054e-06
  3d grid and FFT values/proc = 328509 262144
  update every 1 steps, delay 0 steps, check yes
Step Temp E_pair E_mol TotEng Press
0    310.52771    28511.333    22147.756    53489.648    106.63279
Loop time of 216.71 on 1 procs for 1143 steps with 3059 atoms

Minimization stats:
  Stopping criterion = energy tolerance
  Energy initial, next-to-last, final =
  Force two-norm initial, final = 268156 10.4074
  Force max component initial, final = 96482.5 1.46435
  Final line search alpha, max atom move = 0.00640612 0.00938079
  Iterations, force evaluations = 1143 2280

write_dump all custom pysimm.dump.tmp id q x y z vx vy vz
quit

################################################################################
##################################    Init    ##################################
################################################################################
units           real
atom_style      full
pair_style      lj/cut/coul/long 12.0  12.0
kspace_style    pppm 1e-4
bond_style      harmonic
angle_style     harmonic
dihedral_style  fourier
improper_style  cvff
special_bonds   amber
pair_modify     mix arithmetic
read_data       temp.lmps
  orthogonal box = (-204.551 -204.551 -204.551) to (204.551 204.551 204.551)
  reading atoms ...
  3134 atoms
  reading velocities ...
  3134 velocities
  scanning bonds ...
  scanning angles ...
  scanning dihedrals ...
  scanning impropers ...
  reading bonds ...
  3646 bonds
  reading angles ...
  7560 angles
  reading dihedrals ...
  13950 dihedrals
  reading impropers ...
  252 impropers
################################################################################

min_style cg
minimize 1e-06 1e-06 1000000 10000000
PPPM initialization ...
  G vector (1/distance) = 0.141241
  grid = 64 64 64
  stencil order = 5
  estimated absolute RMS force accuracy = 0.000781221
  estimated relative force accuracy = 2.35263e-06
  3d grid and FFT values/proc = 328509 262144
  update every 1 steps, delay 0 steps, check yes
Step Temp E_pair E_mol TotEng Press
0    319.77252    4834.1694    22584.059    30404.544    9.4052738
Loop time of 241.991 on 1 procs for 1343 steps with 3134 atoms

Minimization stats:
  Stopping criterion = energy tolerance
  Energy initial, next-to-last, final =
  Force two-norm initial, final = 30726 12.3266
  Force max component initial, final = 14685.7 1.64709
  Final line search alpha, max atom move = 0.00516023 0.00849939
  Iterations, force evaluations = 1343 2681

write_dump all custom pysimm.dump.tmp id q x y z vx vy vz
quit

################################################################################
##################################    Init    ##################################
################################################################################
units           real
atom_style      full
pair_style      lj/cut/coul/long 12.0  12.0
kspace_style    pppm 1e-4
bond_style      harmonic
angle_style     harmonic
dihedral_style  fourier
improper_style  cvff
special_bonds   amber
pair_modify     mix arithmetic
read_data       temp.lmps
  orthogonal box = (-206.2 -206.2 -206.2) to (206.2 206.2 206.2)
  reading atoms ...
  3209 atoms
  reading velocities ...
  3209 velocities
  scanning bonds ...
  scanning angles ...
  scanning dihedrals ...
  scanning impropers ...
  reading bonds ...
  3733 bonds
  reading angles ...
  7740 angles
  reading dihedrals ...
  14281 dihedrals
  reading impropers ...
  258 impropers
################################################################################

min_style cg
minimize 1e-06 1e-06 1000000 10000000
PPPM initialization ...
  G vector (1/distance) = 0.140621
  grid = 64 64 64
  stencil order = 5
  estimated absolute RMS force accuracy = 0.000801822
  estimated relative force accuracy = 2.41466e-06
  3d grid and FFT values/proc = 328509 262144
  update every 1 steps, delay 0 steps, check yes
Step Temp E_pair E_mol TotEng Press
0    272.29806    12866.661    23267.484    38737.979    39.754943
Loop time of 175.993 on 1 procs for 965 steps with 3209 atoms

Minimization stats:
  Stopping criterion = linesearch alpha is zero
  Energy initial, next-to-last, final =
  Force two-norm initial, final = 93421.3 11.0365
  Force max component initial, final = 43856.8 1.72138
  Final line search alpha, max atom move = 5.60754e-11 9.65271e-11
  Iterations, force evaluations = 965 1976

write_dump all custom pysimm.dump.tmp id q x y z vx vy vz
quit

################################################################################
##################################    Init    ##################################
################################################################################
units           real
atom_style      full
pair_style      lj/cut/coul/long 12.0  12.0
kspace_style    pppm 1e-4
bond_style      harmonic
angle_style     harmonic
dihedral_style  fourier
improper_style  cvff
special_bonds   amber
pair_modify     mix arithmetic
read_data       temp.lmps
  orthogonal box = (-207.824 -207.824 -207.824) to (207.824 207.824 207.824)
  reading atoms ...
  3284 atoms
  reading velocities ...
  3284 velocities
  scanning bonds ...
  scanning angles ...
  scanning dihedrals ...
  scanning impropers ...
  reading bonds ...
  3820 bonds
  reading angles ...
  7920 angles
  reading dihedrals ...
  14612 dihedrals
  reading impropers ...
  264 impropers
################################################################################

min_style cg
minimize 1e-06 1e-06 1000000 10000000
PPPM initialization ...
  G vector (1/distance) = 0.149346
  grid = 72 72 72
  stencil order = 5
  estimated absolute RMS force accuracy = 0.000553753
  estimated relative force accuracy = 1.66761e-06
  3d grid and FFT values/proc = 456533 373248
  update every 1 steps, delay 0 steps, check yes
Step Temp E_pair E_mol TotEng Press
0    279.50302    5226.9109    23585.684    31547.812    9.4467999
Loop time of 372.188 on 1 procs for 1389 steps with 3284 atoms

Minimization stats:
  Stopping criterion = energy tolerance
  Energy initial, next-to-last, final =
  Force two-norm initial, final = 23036.2 8.85314
  Force max component initial, final = 11438.2 1.19549
  Final line search alpha, max atom move = 0.0105117 0.0125666
  Iterations, force evaluations = 1389 2772

write_dump all custom pysimm.dump.tmp id q x y z vx vy vz
quit

################################################################################
##################################    Init    ##################################
################################################################################
units           real
atom_style      full
pair_style      lj/cut/coul/long 12.0  12.0
kspace_style    pppm 1e-4
bond_style      harmonic
angle_style     harmonic
dihedral_style  fourier
improper_style  cvff
special_bonds   amber
pair_modify     mix arithmetic
read_data       temp.lmps
  orthogonal box = (-209.423 -209.423 -209.423) to (209.423 209.423 209.423)
  reading atoms ...
  3359 atoms
  reading velocities ...
  3359 velocities
  scanning bonds ...
  scanning angles ...
  scanning dihedrals ...
  scanning impropers ...
  reading bonds ...
  3907 bonds
  reading angles ...
  8100 angles
  reading dihedrals ...
  14943 dihedrals
  reading impropers ...
  270 impropers
################################################################################

min_style cg
minimize 1e-06 1e-06 1000000 10000000
PPPM initialization ...
  G vector (1/distance) = 0.14873
  grid = 72 72 72
  stencil order = 5
  estimated absolute RMS force accuracy = 0.000568442
  estimated relative force accuracy = 1.71185e-06
  3d grid and FFT values/proc = 456533 373248
  update every 1 steps, delay 0 steps, check yes
Step Temp E_pair E_mol TotEng Press
0    312.99505    50991.869    24220.535    78345.347    179.24414
Loop time of 288.931 on 1 procs for 1081 steps with 3359 atoms

Minimization stats:
  Stopping criterion = energy tolerance
  Energy initial, next-to-last, final =
  Force two-norm initial, final = 740779 8.79659
  Force max component initial, final = 335097 0.890608
  Final line search alpha, max atom move = 0.00885063 0.00788245
  Iterations, force evaluations = 1081 2157

write_dump all custom pysimm.dump.tmp id q x y z vx vy vz
quit

################################################################################
##################################    Init    ##################################
################################################################################
units           real
atom_style      full
pair_style      lj/cut/coul/long 12.0  12.0
kspace_style    pppm 1e-4
bond_style      harmonic
angle_style     harmonic
dihedral_style  fourier
improper_style  cvff
special_bonds   amber
pair_modify     mix arithmetic
read_data       temp.lmps
  orthogonal box = (-210.998 -210.998 -210.998) to (210.998 210.998 210.998)
  reading atoms ...
  3434 atoms
  reading velocities ...
  3434 velocities
  scanning bonds ...
  scanning angles ...
  scanning dihedrals ...
  scanning impropers ...
  reading bonds ...
  3994 bonds
  reading angles ...
  8280 angles
  reading dihedrals ...
  15274 dihedrals
  reading impropers ...
  276 impropers
################################################################################

min_style cg
minimize 1e-06 1e-06 1000000 10000000
PPPM initialization ...
  G vector (1/distance) = 0.148127
  grid = 72 72 72
  stencil order = 5
  estimated absolute RMS force accuracy = 0.000583118
  estimated relative force accuracy = 1.75604e-06
  3d grid and FFT values/proc = 456533 373248
  update every 1 steps, delay 0 steps, check yes
Step Temp E_pair E_mol TotEng Press
0    3594.3357    9856.1432    45293.286    91930.701     10.47985
Loop time of 405.881 on 1 procs for 1617 steps with 3434 atoms

Minimization stats:
  Stopping criterion = energy tolerance
  Energy initial, next-to-last, final =
  Force two-norm initial, final = 57469.2 9.46122
  Force max component initial, final = 30179.2 0.835017
  Final line search alpha, max atom move = 0.0110165 0.00919894
  Iterations, force evaluations = 1617 3039

write_dump all custom pysimm.dump.tmp id q x y z vx vy vz
quit

################################################################################
##################################    Init    ##################################
################################################################################
units           real
atom_style      full
pair_style      lj/cut/coul/long 12.0  12.0
kspace_style    pppm 1e-4
bond_style      harmonic
angle_style     harmonic
dihedral_style  fourier
improper_style  cvff
special_bonds   amber
pair_modify     mix arithmetic
read_data       temp.lmps
  orthogonal box = (-212.549 -212.549 -212.549) to (212.549 212.549 212.549)
  reading atoms ...
  3509 atoms
  reading velocities ...
  3509 velocities
  scanning bonds ...
  scanning angles ...
  scanning dihedrals ...
  scanning impropers ...
  reading bonds ...
  4081 bonds
  reading angles ...
  8460 angles
  reading dihedrals ...
  15605 dihedrals
  reading impropers ...
  282 impropers
################################################################################

min_style cg
minimize 1e-06 1e-06 1000000 10000000
PPPM initialization ...
  G vector (1/distance) = 0.147539
  grid = 72 72 72
  stencil order = 5
  estimated absolute RMS force accuracy = 0.000597779
  estimated relative force accuracy = 1.80019e-06
  3d grid and FFT values/proc = 456533 373248
  update every 1 steps, delay 0 steps, check yes
Step Temp E_pair E_mol TotEng Press
0    1497.1821    7608.8265    26002.675    49267.058    22.574197
Loop time of 331.099 on 1 procs for 1230 steps with 3509 atoms

Minimization stats:
  Stopping criterion = energy tolerance
  Energy initial, next-to-last, final =
  Force two-norm initial, final = 33085.6 9.10068
  Force max component initial, final = 13493.1 0.760351
  Final line search alpha, max atom move = 0.0106443 0.0080934
  Iterations, force evaluations = 1230 2452

write_dump all custom pysimm.dump.tmp id q x y z vx vy vz
quit

################################################################################
##################################    Init    ##################################
################################################################################
units           real
atom_style      full
pair_style      lj/cut/coul/long 12.0  12.0
kspace_style    pppm 1e-4
bond_style      harmonic
angle_style     harmonic
dihedral_style  fourier
improper_style  cvff
special_bonds   amber
pair_modify     mix arithmetic
read_data       temp.lmps
  orthogonal box = (-214.078 -214.078 -214.078) to (214.078 214.078 214.078)
  reading atoms ...
  3584 atoms
  reading velocities ...
  3584 velocities
  scanning bonds ...
  scanning angles ...
  scanning dihedrals ...
  scanning impropers ...
  reading bonds ...
  4168 bonds
  reading angles ...
  8640 angles
  reading dihedrals ...
  15936 dihedrals
  reading impropers ...
  288 impropers
################################################################################

min_style cg
minimize 1e-06 1e-06 1000000 10000000
PPPM initialization ...
  G vector (1/distance) = 0.146963
  grid = 72 72 72
  stencil order = 5
  estimated absolute RMS force accuracy = 0.000612423
  estimated relative force accuracy = 1.84429e-06
  3d grid and FFT values/proc = 456533 373248
  update every 1 steps, delay 0 steps, check yes
Step Temp E_pair E_mol TotEng Press
0     1086.632    5605.5465    26499.757    43710.796    11.721513
Loop time of 251.037 on 1 procs for 944 steps with 3584 atoms

Minimization stats:
  Stopping criterion = energy tolerance
  Energy initial, next-to-last, final =
  Force two-norm initial, final = 29056.9 11.3406
  Force max component initial, final = 10684.1 0.969141
  Final line search alpha, max atom move = 0.0088742 0.00860035
  Iterations, force evaluations = 944 1879

write_dump all custom pysimm.dump.tmp id q x y z vx vy vz
quit

################################################################################
##################################    Init    ##################################
################################################################################
units           real
atom_style      full
pair_style      lj/cut/coul/long 12.0  12.0
kspace_style    pppm 1e-4
bond_style      harmonic
angle_style     harmonic
dihedral_style  fourier
improper_style  cvff
special_bonds   amber
pair_modify     mix arithmetic
read_data       temp.lmps
  orthogonal box = (-215.586 -215.586 -215.586) to (215.586 215.586 215.586)
  reading atoms ...
  3659 atoms
  reading velocities ...
  3659 velocities
  scanning bonds ...
  scanning angles ...
  scanning dihedrals ...
  scanning impropers ...
  reading bonds ...
  4255 bonds
  reading angles ...
  8820 angles
  reading dihedrals ...
  16267 dihedrals
  reading impropers ...
  294 impropers
################################################################################

min_style cg
minimize 1e-06 1e-06 1000000 10000000
PPPM initialization ...
  G vector (1/distance) = 0.146401
  grid = 72 72 72
  stencil order = 5
  estimated absolute RMS force accuracy = 0.000627051
  estimated relative force accuracy = 1.88834e-06
  3d grid and FFT values/proc = 456533 373248
  update every 1 steps, delay 0 steps, check yes
Step Temp E_pair E_mol TotEng Press
0    987.92067     12139.74    26839.672    49751.505    33.767449
Loop time of 310.175 on 1 procs for 1183 steps with 3659 atoms

Minimization stats:
  Stopping criterion = energy tolerance
  Energy initial, next-to-last, final =
  Force two-norm initial, final = 107580 10.2475
  Force max component initial, final = 64039.3 1.17699
  Final line search alpha, max atom move = 0.00771955 0.00908582
  Iterations, force evaluations = 1183 2361

write_dump all custom pysimm.dump.tmp id q x y z vx vy vz
quit

################################################################################
##################################    Init    ##################################
################################################################################
units           real
atom_style      full
pair_style      lj/cut/coul/long 12.0  12.0
kspace_style    pppm 1e-4
bond_style      harmonic
angle_style     harmonic
dihedral_style  fourier
improper_style  cvff
special_bonds   amber
pair_modify     mix arithmetic
read_data       temp.lmps
  orthogonal box = (-217.073 -217.073 -217.073) to (217.073 217.073 217.073)
  reading atoms ...
  3734 atoms
  reading velocities ...
  3734 velocities
  scanning bonds ...
  scanning angles ...
  scanning dihedrals ...
  scanning impropers ...
  reading bonds ...
  4342 bonds
  reading angles ...
  9000 angles
  reading dihedrals ...
  16598 dihedrals
  reading impropers ...
  300 impropers
################################################################################

min_style cg
minimize 1e-06 1e-06 1000000 10000000
PPPM initialization ...
  G vector (1/distance) = 0.145851
  grid = 72 72 72
  stencil order = 5
  estimated absolute RMS force accuracy = 0.000641661
  estimated relative force accuracy = 1.93234e-06
  3d grid and FFT values/proc = 456533 373248
  update every 1 steps, delay 0 steps, check yes
Loop time of 357.143 on 1 procs for 1350 steps with 3734 atoms

Minimization stats:
  Stopping criterion = energy tolerance
  Energy initial, next-to-last, final =
  Force two-norm initial, final = 34262.5 13.1284
  Force max component initial, final = 19058.9 1.51344
  Final line search alpha, max atom move = 0.0065679 0.00994012
  Iterations, force evaluations = 1350 2695

write_dump all custom pysimm.dump.tmp id q x y z vx vy vz
quit
