################################################################################
##################################    Init    ##################################
################################################################################
units           real
atom_style      full
pair_style      lj/cut/coul/long 12.0  12.0
kspace_style    pppm 1e-4
bond_style      harmonic
angle_style     harmonic
dihedral_style  fourier
improper_style  cvff
special_bonds   amber
pair_modify     mix arithmetic
read_data       temp.lmps
  orthogonal box = (-108.045 -108.045 -108.045) to (108.045 108.045 108.045)
  reading atoms ...
  595 atoms
  reading velocities ...
  595 velocities
  scanning bonds ...
  scanning angles ...
  scanning dihedrals ...
  scanning impropers ...
  reading bonds ...
  629 bonds
  reading angles ...
  1095 angles
  reading dihedrals ...
  1621 dihedrals
  reading impropers ...
  165 impropers
################################################################################

min_style cg
minimize 1e-05 1e-05 10000 100000
PPPM initialization ...
  G vector (1/distance) = 0.093443
  grid = 18 18 18
  stencil order = 5
  estimated absolute RMS force accuracy = 0.0325511
  estimated relative force accuracy = 9.80267e-05
  3d grid and FFT values/proc = 1960 648
  update every 1 steps, delay 0 steps, check yes
Step Temp E_pair E_mol TotEng Press
0    1742.6879    371.26258    955.26122    4412.1291    13.911905
Loop time of 0.172646 on 16 procs for 14 steps with 595 atoms

Minimization stats:
  Stopping criterion = linesearch alpha is zero
  Energy initial, next-to-last, final =
  Force two-norm initial, final = 52.9155 38.5005
  Force max component initial, final = 7.66858 4.65453
  Final line search alpha, max atom move = 5.49289e-12 2.55668e-11
  Iterations, force evaluations = 14 87

timestep        1
fix             pysimm_md all nvt temp 300 300 100
run             5000
PPPM initialization ...
  G vector (1/distance) = 0.093443
  grid = 18 18 18
  stencil order = 5
  estimated absolute RMS force accuracy = 0.0325511
  estimated relative force accuracy = 9.80267e-05
  3d grid and FFT values/proc = 1960 648
Step Temp E_pair E_mol TotEng Press
14    1742.6879     370.5327    944.65357    4400.7915    14.271125
Loop time of 4.38791 on 16 procs for 5000 steps with 595 atoms

unfix pysimm_md
write_dump all custom pysimm.dump.tmp id q x y z vx vy vz
quit

################################################################################
##################################    Init    ##################################
################################################################################
units           real
atom_style      full
pair_style      lj/cut/coul/long 12.0  12.0
kspace_style    pppm 1e-4
bond_style      harmonic
angle_style     harmonic
dihedral_style  fourier
improper_style  cvff
special_bonds   amber
pair_modify     mix arithmetic
read_data       temp.lmps
  orthogonal box = (-111.533 -111.533 -111.533) to (111.533 111.533 111.533)
  reading atoms ...
  654 atoms
  reading velocities ...
  654 velocities
  scanning bonds ...
  scanning angles ...
  scanning dihedrals ...
  scanning impropers ...
  reading bonds ...
  693 bonds
  reading angles ...
  1209 angles
  reading dihedrals ...
  1787 dihedrals
  reading impropers ...
  181 impropers
################################################################################

min_style cg
minimize 1e-05 1e-05 10000 100000
PPPM initialization ...
  G vector (1/distance) = 0.0912663
  grid = 18 18 18
  stencil order = 5
  estimated absolute RMS force accuracy = 0.0337991
  estimated relative force accuracy = 0.000101785
  3d grid and FFT values/proc = 1960 648
  update every 1 steps, delay 0 steps, check yes
Step Temp E_pair E_mol TotEng Press
0    1539.9449    402.62369    1047.1173    4447.1959    12.865103
Loop time of 0.298112 on 16 procs for 40 steps with 654 atoms

Minimization stats:
  Stopping criterion = linesearch alpha is zero
  Energy initial, next-to-last, final =
  Force two-norm initial, final = 67.0833 49.808
  Force max component initial, final = 10.091 6.67772
  Final line search alpha, max atom move = 4.60182e-12 3.07297e-11
  Iterations, force evaluations = 40 187

timestep        1
fix             pysimm_md all nvt temp 300 300 100
run             5000
PPPM initialization ...
  G vector (1/distance) = 0.0912663
  grid = 18 18 18
  stencil order = 5
  estimated absolute RMS force accuracy = 0.0337991
  estimated relative force accuracy = 0.000101785
  3d grid and FFT values/proc = 1960 648
Step Temp E_pair E_mol TotEng Press
40    1539.9449    382.13361    997.78683    4377.3754    12.046774
Loop time of 3.98248 on 16 procs for 5000 steps with 654 atoms

unfix pysimm_md
write_dump all custom pysimm.dump.tmp id q x y z vx vy vz
quit

################################################################################
##################################    Init    ##################################
################################################################################
units           real
atom_style      full
pair_style      lj/cut/coul/long 12.0  12.0
kspace_style    pppm 1e-4
bond_style      harmonic
angle_style     harmonic
dihedral_style  fourier
improper_style  cvff
special_bonds   amber
pair_modify     mix arithmetic
read_data       temp.lmps
  orthogonal box = (-114.815 -114.815 -114.815) to (114.815 114.815 114.815)
  reading atoms ...
  715 atoms
  reading velocities ...
  715 velocities
  scanning bonds ...
  scanning angles ...
  scanning dihedrals ...
  scanning impropers ...
  reading bonds ...
  753 bonds
  reading angles ...
  1307 angles
  reading dihedrals ...
  1943 dihedrals
  reading impropers ...
  199 impropers
################################################################################

min_style cg
minimize 1e-05 1e-05 10000 100000
PPPM initialization ...
  G vector (1/distance) = 0.0965453
  grid = 20 20 20
  stencil order = 5
  estimated absolute RMS force accuracy = 0.0310013
  estimated relative force accuracy = 9.33595e-05
  3d grid and FFT values/proc = 2250 800
  update every 1 steps, delay 0 steps, check yes
Step Temp E_pair E_mol TotEng Press
0    1544.4634    395.91931    1251.1474    4934.1457    12.175204
Loop time of 0.245109 on 16 procs for 33 steps with 715 atoms

Minimization stats:
  Stopping criterion = linesearch alpha is zero
  Energy initial, next-to-last, final =
  Force two-norm initial, final = 65.0532 50.7658
  Force max component initial, final = 10.2409 5.38678
  Final line search alpha, max atom move = 2.57261e-12 1.38581e-11
  Iterations, force evaluations = 33 125

timestep        1
fix             pysimm_md all nvt temp 300 300 100
run             5000
PPPM initialization ...
  G vector (1/distance) = 0.0965453
  grid = 20 20 20
  stencil order = 5
  estimated absolute RMS force accuracy = 0.0310013
  estimated relative force accuracy = 9.33595e-05
  3d grid and FFT values/proc = 2250 800
Step Temp E_pair E_mol TotEng Press
33    1544.4634    389.27784    1210.9255    4887.2823    12.426401
Loop time of 4.45026 on 16 procs for 5000 steps with 715 atoms

unfix pysimm_md
write_dump all custom pysimm.dump.tmp id q x y z vx vy vz
quit

################################################################################
##################################    Init    ##################################
################################################################################
units           real
atom_style      full
pair_style      lj/cut/coul/long 12.0  12.0
kspace_style    pppm 1e-4
bond_style      harmonic
angle_style     harmonic
dihedral_style  fourier
improper_style  cvff
special_bonds   amber
pair_modify     mix arithmetic
read_data       temp.lmps
  orthogonal box = (-117.92 -117.92 -117.92) to (117.92 117.92 117.92)
  reading atoms ...
  773 atoms
  reading velocities ...
  773 velocities
  scanning bonds ...
  scanning angles ...
  scanning dihedrals ...
  scanning impropers ...
  reading bonds ...
  819 bonds
  reading angles ...
  1429 angles
  reading dihedrals ...
  2114 dihedrals
  reading impropers ...
  214 impropers
################################################################################

min_style cg
minimize 1e-05 1e-05 10000 100000
PPPM initialization ...
  G vector (1/distance) = 0.0946825
  grid = 20 20 20
  stencil order = 5
  estimated absolute RMS force accuracy = 0.0309422
  estimated relative force accuracy = 9.31817e-05
  3d grid and FFT values/proc = 2250 800
  update every 1 steps, delay 0 steps, check yes
Step Temp E_pair E_mol TotEng Press
0    1185.9415    469.34635    1247.0449    4445.4624    9.6102527
Loop time of 0.408421 on 16 procs for 24 steps with 773 atoms

Minimization stats:
  Stopping criterion = linesearch alpha is zero
  Energy initial, next-to-last, final =
  Force two-norm initial, final = 75.862 61.9029
  Force max component initial, final = 13.9473 7.55062
  Final line search alpha, max atom move = 2.06308e-12 1.55775e-11
  Iterations, force evaluations = 24 107

timestep        1
fix             pysimm_md all nvt temp 300 300 100
run             5000
PPPM initialization ...
  G vector (1/distance) = 0.0946825
  grid = 20 20 20
  stencil order = 5
  estimated absolute RMS force accuracy = 0.0309422
  estimated relative force accuracy = 9.31817e-05
  3d grid and FFT values/proc = 2250 800
Step Temp E_pair E_mol TotEng Press
24    1185.9415     467.2856     1207.489    4403.8457    10.252875
Loop time of 6.50553 on 16 procs for 5000 steps with 773 atoms

unfix pysimm_md
write_dump all custom pysimm.dump.tmp id q x y z vx vy vz
quit

################################################################################
##################################    Init    ##################################
################################################################################
units           real
atom_style      full
pair_style      lj/cut/coul/long 12.0  12.0
kspace_style    pppm 1e-4
bond_style      harmonic
angle_style     harmonic
dihedral_style  fourier
improper_style  cvff
special_bonds   amber
pair_modify     mix arithmetic
read_data       temp.lmps
  orthogonal box = (-118.502 -118.502 -118.502) to (118.502 118.502 118.502)
  reading atoms ...
  834 atoms
  reading velocities ...
  834 velocities
  scanning bonds ...
  scanning angles ...
  scanning dihedrals ...
  scanning impropers ...
  reading bonds ...
  879 bonds
  reading angles ...
  1528 angles
  reading dihedrals ...
  2272 dihedrals
  reading impropers ...
  232 impropers
################################################################################

min_style cg
minimize 1e-05 1e-05 10000 100000
PPPM initialization ...
  G vector (1/distance) = 0.09434
  grid = 20 20 20
  stencil order = 5
  estimated absolute RMS force accuracy = 0.0337582
  estimated relative force accuracy = 0.000101662
  3d grid and FFT values/proc = 2250 800
  update every 1 steps, delay 0 steps, check yes
Step Temp E_pair E_mol TotEng Press
0    1753.7612    464.52894    1418.5865    6237.7303    14.489811
Loop time of 0.280951 on 16 procs for 7 steps with 834 atoms

Minimization stats:
  Stopping criterion = linesearch alpha is zero
  Energy initial, next-to-last, final =
  Force two-norm initial, final = 88.141 60.6316
  Force max component initial, final = 16.4132 7.25728
  Final line search alpha, max atom move = 2.18554e-12 1.58611e-11
  Iterations, force evaluations = 7 75

timestep        1
fix             pysimm_md all nvt temp 300 300 100
run             5000
PPPM initialization ...
  G vector (1/distance) = 0.09434
  grid = 20 20 20
  stencil order = 5
  estimated absolute RMS force accuracy = 0.0337582
  estimated relative force accuracy = 0.000101662
  3d grid and FFT values/proc = 2250 800
Step Temp E_pair E_mol TotEng Press
7    1753.7612    460.46951    1405.3308    6220.4151     14.57325
Loop time of 8.59746 on 16 procs for 5000 steps with 834 atoms

unfix pysimm_md
write_dump all custom pysimm.dump.tmp id q x y z vx vy vz
quit

################################################################################
##################################    Init    ##################################
################################################################################
units           real
atom_style      full
pair_style      lj/cut/coul/long 12.0  12.0
kspace_style    pppm 1e-4
bond_style      harmonic
angle_style     harmonic
dihedral_style  fourier
improper_style  cvff
special_bonds   amber
pair_modify     mix arithmetic
read_data       temp.lmps
  orthogonal box = (-121.259 -121.259 -121.259) to (121.259 121.259 121.259)
  reading atoms ...
  892 atoms
  reading velocities ...
  892 velocities
  scanning bonds ...
  scanning angles ...
  scanning dihedrals ...
  scanning impropers ...
  reading bonds ...
  945 bonds
  reading angles ...
  1650 angles
  reading dihedrals ...
  2443 dihedrals
  reading impropers ...
  247 impropers
################################################################################

min_style cg
minimize 1e-05 1e-05 10000 100000
PPPM initialization ...
  G vector (1/distance) = 0.0927531
  grid = 20 20 20
  stencil order = 5
  estimated absolute RMS force accuracy = 0.0336542
  estimated relative force accuracy = 0.000101349
  3d grid and FFT values/proc = 2250 800
  update every 1 steps, delay 0 steps, check yes
Step Temp E_pair E_mol TotEng Press
0    1583.1865    566.59831    1607.7357    6379.1218    13.904383
Loop time of 0.192306 on 16 procs for 7 steps with 892 atoms

Minimization stats:
  Stopping criterion = linesearch alpha is zero
  Energy initial, next-to-last, final =
  Force two-norm initial, final = 89.4475 70.8749
  Force max component initial, final = 10.6893 10.8944
  Final line search alpha, max atom move = 1.4914e-12 1.6248e-11
  Iterations, force evaluations = 7 75

timestep        1
fix             pysimm_md all nvt temp 300 300 100
run             5000
PPPM initialization ...
  G vector (1/distance) = 0.0927531
  grid = 20 20 20
  stencil order = 5
  estimated absolute RMS force accuracy = 0.0336542
  estimated relative force accuracy = 0.000101349
  3d grid and FFT values/proc = 2250 800
Step Temp E_pair E_mol TotEng Press
7    1583.1865     566.7311    1591.8527    6363.3716    14.183295
Loop time of 5.03038 on 16 procs for 5000 steps with 892 atoms

unfix pysimm_md
write_dump all custom pysimm.dump.tmp id q x y z vx vy vz
quit

################################################################################
##################################    Init    ##################################
################################################################################
units           real
atom_style      full
pair_style      lj/cut/coul/long 12.0  12.0
kspace_style    pppm 1e-4
bond_style      harmonic
angle_style     harmonic
dihedral_style  fourier
improper_style  cvff
special_bonds   amber
pair_modify     mix arithmetic
read_data       temp.lmps
  orthogonal box = (-123.896 -123.896 -123.896) to (123.896 123.896 123.896)
  reading atoms ...
  957 atoms
  reading velocities ...
  957 velocities
  scanning bonds ...
  scanning angles ...
  scanning dihedrals ...
  scanning impropers ...
  reading bonds ...
  997 bonds
  reading angles ...
  1716 angles
  reading dihedrals ...
  2579 dihedrals
  reading impropers ...
  269 impropers
################################################################################

min_style cg
minimize 1e-05 1e-05 10000 100000
PPPM initialization ...
  G vector (1/distance) = 0.104144
  grid = 24 24 24
  stencil order = 5
  estimated absolute RMS force accuracy = 0.0281306
  estimated relative force accuracy = 8.47144e-05
  3d grid and FFT values/proc = 3179 1152
  update every 1 steps, delay 0 steps, check yes
Step Temp E_pair E_mol TotEng Press
0    1267.5776    458.57246    1769.5697    5840.3004    10.959489
Loop time of 0.398918 on 16 procs for 34 steps with 957 atoms

Minimization stats:
  Stopping criterion = linesearch alpha is zero
  Energy initial, next-to-last, final =
  Force two-norm initial, final = 74.4904 52.1997
  Force max component initial, final = 8.99373 7.1358
  Final line search alpha, max atom move = 2.66881e-12 1.90441e-11
  Iterations, force evaluations = 34 127

timestep        1
fix             pysimm_md all nvt temp 300 300 100
run             5000
PPPM initialization ...
  G vector (1/distance) = 0.104144
  grid = 24 24 24
  stencil order = 5
  estimated absolute RMS force accuracy = 0.0281306
  estimated relative force accuracy = 8.47144e-05
  3d grid and FFT values/proc = 3179 1152
Step Temp E_pair E_mol TotEng Press
34    1267.5776    445.82256    1725.7531    5783.7339    10.345979
Loop time of 6.77842 on 16 procs for 5000 steps with 957 atoms

unfix pysimm_md
write_dump all custom pysimm.dump.tmp id q x y z vx vy vz
quit

################################################################################
##################################    Init    ##################################
################################################################################
units           real
atom_style      full
pair_style      lj/cut/coul/long 12.0  12.0
kspace_style    pppm 1e-4
bond_style      harmonic
angle_style     harmonic
dihedral_style  fourier
improper_style  cvff
special_bonds   amber
pair_modify     mix arithmetic
read_data       temp.lmps
  orthogonal box = (-126.425 -126.425 -126.425) to (126.425 126.425 126.425)
  reading atoms ...
  1013 atoms
  reading velocities ...
  1013 velocities
  scanning bonds ...
  scanning angles ...
  scanning dihedrals ...
  scanning impropers ...
  reading bonds ...
  1067 bonds
  reading angles ...
  1854 angles
  reading dihedrals ...
  2760 dihedrals
  reading impropers ...
  282 impropers
################################################################################

min_style cg
minimize 1e-05 1e-05 10000 100000
PPPM initialization ...
  G vector (1/distance) = 0.102677
  grid = 24 24 24
  stencil order = 5
  estimated absolute RMS force accuracy = 0.0268393
  estimated relative force accuracy = 8.08258e-05
  3d grid and FFT values/proc = 3179 1152
  update every 1 steps, delay 0 steps, check yes
Step Temp E_pair E_mol TotEng Press
0    1122.5439    588.00438     1674.334    5648.5815    10.457643
Loop time of 1.00301 on 16 procs for 86 steps with 1013 atoms

Minimization stats:
  Stopping criterion = linesearch alpha is zero
  Energy initial, next-to-last, final =
  Force two-norm initial, final = 73.406 32.3476
  Force max component initial, final = 8.45242 3.91122
  Final line search alpha, max atom move = 6.10999e-12 2.38975e-11
  Iterations, force evaluations = 86 244

timestep        1
fix             pysimm_md all nvt temp 300 300 100
run             5000
PPPM initialization ...
  G vector (1/distance) = 0.102677
  grid = 24 24 24
  stencil order = 5
  estimated absolute RMS force accuracy = 0.0268393
  estimated relative force accuracy = 8.08258e-05
  3d grid and FFT values/proc = 3179 1152
Step Temp E_pair E_mol TotEng Press
86    1122.5439    551.89899    1584.4529    5522.5951    9.2797976
Loop time of 7.72035 on 16 procs for 5000 steps with 1013 atoms

unfix pysimm_md
write_dump all custom pysimm.dump.tmp id q x y z vx vy vz
quit

################################################################################
##################################    Init    ##################################
################################################################################
units           real
atom_style      full
pair_style      lj/cut/coul/long 12.0  12.0
kspace_style    pppm 1e-4
bond_style      harmonic
angle_style     harmonic
dihedral_style  fourier
improper_style  cvff
special_bonds   amber
pair_modify     mix arithmetic
read_data       temp.lmps
  orthogonal box = (-131.43 -131.43 -131.43) to (131.43 131.43 131.43)
  reading atoms ...
  1074 atoms
  reading velocities ...
  1074 velocities
  scanning bonds ...
  scanning angles ...
  scanning dihedrals ...
  scanning impropers ...
  reading bonds ...
  1127 bonds
  reading angles ...
  1951 angles
  reading dihedrals ...
  2914 dihedrals
  reading impropers ...
  300 impropers
################################################################################

min_style cg
minimize 1e-05 1e-05 10000 100000
PPPM initialization ...
  G vector (1/distance) = 0.0998851
  grid = 24 24 24
  stencil order = 5
  estimated absolute RMS force accuracy = 0.0292052
  estimated relative force accuracy = 8.79505e-05
  3d grid and FFT values/proc = 3179 1152
  update every 1 steps, delay 0 steps, check yes
Step Temp E_pair E_mol TotEng Press
0    1064.3885    600.82313    1826.3827    5831.5556    8.8860912
Loop time of 0.345143 on 16 procs for 43 steps with 1074 atoms

Minimization stats:
  Stopping criterion = linesearch alpha is zero
  Energy initial, next-to-last, final =
  Force two-norm initial, final = 75.376 58.9228
  Force max component initial, final = 8.65516 7.05002
  Final line search alpha, max atom move = 2.03369e-12 1.43376e-11
  Iterations, force evaluations = 43 145

timestep        1
fix             pysimm_md all nvt temp 300 300 100
run             5000
PPPM initialization ...
  G vector (1/distance) = 0.0998851
  grid = 24 24 24
  stencil order = 5
  estimated absolute RMS force accuracy = 0.0292052
  estimated relative force accuracy = 8.79505e-05
  3d grid and FFT values/proc = 3179 1152
Step Temp E_pair E_mol TotEng Press
43    1064.3885     580.6972    1758.7778    5743.8248    8.2358795
Loop time of 5.89086 on 16 procs for 5000 steps with 1074 atoms

unfix pysimm_md
write_dump all custom pysimm.dump.tmp id q x y z vx vy vz
quit

################################################################################
##################################    Init    ##################################
################################################################################
units           real
atom_style      full
pair_style      lj/cut/coul/long 12.0  12.0
kspace_style    pppm 1e-4
bond_style      harmonic
angle_style     harmonic
dihedral_style  fourier
improper_style  cvff
special_bonds   amber
pair_modify     mix arithmetic
read_data       temp.lmps
  orthogonal box = (-133.82 -133.82 -133.82) to (133.82 133.82 133.82)
  reading atoms ...
  1129 atoms
  reading velocities ...
  1129 velocities
  scanning bonds ...
  scanning angles ...
  scanning dihedrals ...
  scanning impropers ...
  reading bonds ...
  1199 bonds
  reading angles ...
  2097 angles
  reading dihedrals ...
  3100 dihedrals
  reading impropers ...
  312 impropers
################################################################################

min_style cg
minimize 1e-05 1e-05 10000 100000
PPPM initialization ...
  G vector (1/distance) = 0.0986031
  grid = 24 24 24
  stencil order = 5
  estimated absolute RMS force accuracy = 0.02724
  estimated relative force accuracy = 8.20324e-05
  3d grid and FFT values/proc = 3179 1152
  update every 1 steps, delay 0 steps, check yes
Step Temp E_pair E_mol TotEng Press
0    933.85713    694.71302    1719.3081    5553.9791    7.3655342
Loop time of 0.09097 on 16 procs for 12 steps with 1129 atoms

Minimization stats:
  Stopping criterion = energy tolerance
  Energy initial, next-to-last, final =
  Force two-norm initial, final = 82.1442 51.6772
  Force max component initial, final = 10.3718 5.26219
  Final line search alpha, max atom move = 0.00608234 0.0320064
  Iterations, force evaluations = 12 24

timestep        1
fix             pysimm_md all nvt temp 300 300 100
run             5000
PPPM initialization ...
  G vector (1/distance) = 0.0986031
  grid = 24 24 24
  stencil order = 5
  estimated absolute RMS force accuracy = 0.02724
  estimated relative force accuracy = 8.20324e-05
  3d grid and FFT values/proc = 3179 1152
Step Temp E_pair E_mol TotEng Press
12    933.85713    697.39021     1696.625    5533.9732    7.7756952
Loop time of 7.93032 on 16 procs for 5000 steps with 1129 atoms

unfix pysimm_md
write_dump all custom pysimm.dump.tmp id q x y z vx vy vz
quit

################################################################################
##################################    Init    ##################################
################################################################################
units           real
atom_style      full
pair_style      lj/cut/coul/long 12.0  12.0
kspace_style    pppm 1e-4
bond_style      harmonic
angle_style     harmonic
dihedral_style  fourier
improper_style  cvff
special_bonds   amber
pair_modify     mix arithmetic
read_data       temp.lmps
  orthogonal box = (-133.463 -133.463 -133.463) to (133.463 133.463 133.463)
  reading atoms ...
  1186 atoms
  reading velocities ...
  1186 velocities
  scanning bonds ...
  scanning angles ...
  scanning dihedrals ...
  scanning impropers ...
  reading bonds ...
  1267 bonds
  reading angles ...
  2228 angles
  reading dihedrals ...
  3278 dihedrals
  reading impropers ...
  326 impropers
################################################################################

min_style cg
minimize 1e-05 1e-05 10000 100000
PPPM initialization ...
  G vector (1/distance) = 0.0987936
  grid = 24 24 24
  stencil order = 5
  estimated absolute RMS force accuracy = 0.0263612
  estimated relative force accuracy = 7.93858e-05
  3d grid and FFT values/proc = 3179 1152
  update every 1 steps, delay 0 steps, check yes
Step Temp E_pair E_mol TotEng Press
0    1250.0966    826.97579    1754.6857    6997.3275    11.585035
Loop time of 0.841466 on 16 procs for 118 steps with 1186 atoms

Minimization stats:
  Stopping criterion = linesearch alpha is zero
  Energy initial, next-to-last, final =
  Force two-norm initial, final = 81.4951 41.6266
  Force max component initial, final = 8.42852 4.01211
  Final line search alpha, max atom move = 5.26521e-12 2.11246e-11
  Iterations, force evaluations = 118 293

timestep        1
fix             pysimm_md all nvt temp 300 300 100
run             5000
PPPM initialization ...
  G vector (1/distance) = 0.0987936
  grid = 24 24 24
  stencil order = 5
  estimated absolute RMS force accuracy = 0.0263612
  estimated relative force accuracy = 7.93858e-05
  3d grid and FFT values/proc = 3179 1152
Step Temp E_pair E_mol TotEng Press
118    1250.0966    794.35971    1602.1447    6812.1704    10.222102
Loop time of 6.04129 on 16 procs for 5000 steps with 1186 atoms

unfix pysimm_md
write_dump all custom pysimm.dump.tmp id q x y z vx vy vz
quit

################################################################################
##################################    Init    ##################################
################################################################################
units           real
atom_style      full
pair_style      lj/cut/coul/long 12.0  12.0
kspace_style    pppm 1e-4
bond_style      harmonic
angle_style     harmonic
dihedral_style  fourier
improper_style  cvff
special_bonds   amber
pair_modify     mix arithmetic
read_data       temp.lmps
  orthogonal box = (-135.651 -135.651 -135.651) to (135.651 135.651 135.651)
  reading atoms ...
  1249 atoms
  reading velocities ...
  1249 velocities
  scanning bonds ...
  scanning angles ...
  scanning dihedrals ...
  scanning impropers ...
  reading bonds ...
  1323 bonds
  reading angles ...
  2310 angles
  reading dihedrals ...
  3424 dihedrals
  reading impropers ...
  346 impropers
################################################################################

min_style cg
minimize 1e-05 1e-05 10000 100000
PPPM initialization ...
  G vector (1/distance) = 0.0976404
  grid = 24 24 24
  stencil order = 5
  estimated absolute RMS force accuracy = 0.0295599
  estimated relative force accuracy = 8.90187e-05
  3d grid and FFT values/proc = 3179 1152
  update every 1 steps, delay 0 steps, check yes
Step Temp E_pair E_mol TotEng Press
0    864.34756    758.52347    1924.1555     5898.096    6.9074819
Loop time of 0.525184 on 16 procs for 43 steps with 1249 atoms

Minimization stats:
  Stopping criterion = linesearch alpha is zero
  Energy initial, next-to-last, final =
  Force two-norm initial, final = 73.168 64.3516
  Force max component initial, final = 9.20243 8.46487
  Final line search alpha, max atom move = 2.32492e-12 1.96801e-11
  Iterations, force evaluations = 43 145

timestep        1
fix             pysimm_md all nvt temp 300 300 100
run             5000
PPPM initialization ...
  G vector (1/distance) = 0.0976404
  grid = 24 24 24
  stencil order = 5
  estimated absolute RMS force accuracy = 0.0295599
  estimated relative force accuracy = 8.90187e-05
  3d grid and FFT values/proc = 3179 1152
Step Temp E_pair E_mol TotEng Press
43    864.34756    733.93706    1853.9899    5803.3439    6.0025729
Loop time of 7.60876 on 16 procs for 5000 steps with 1249 atoms

unfix pysimm_md
write_dump all custom pysimm.dump.tmp id q x y z vx vy vz
quit

################################################################################
##################################    Init    ##################################
################################################################################
units           real
atom_style      full
pair_style      lj/cut/coul/long 12.0  12.0
kspace_style    pppm 1e-4
bond_style      harmonic
angle_style     harmonic
dihedral_style  fourier
improper_style  cvff
special_bonds   amber
pair_modify     mix arithmetic
read_data       temp.lmps
  orthogonal box = (-137.771 -137.771 -137.771) to (137.771 137.771 137.771)
  reading atoms ...
  1308 atoms
  reading velocities ...
  1308 velocities
  scanning bonds ...
  scanning angles ...
  scanning dihedrals ...
  scanning impropers ...
  reading bonds ...
  1387 bonds
  reading angles ...
  2424 angles
  reading dihedrals ...
  3590 dihedrals
  reading impropers ...
  362 impropers
################################################################################

min_style cg
minimize 1e-05 1e-05 10000 100000
PPPM initialization ...
  G vector (1/distance) = 0.0965488
  grid = 24 24 24
  stencil order = 5
  estimated absolute RMS force accuracy = 0.0301817
  estimated relative force accuracy = 9.08914e-05
  3d grid and FFT values/proc = 3179 1152
  update every 1 steps, delay 0 steps, check yes
Step Temp E_pair E_mol TotEng Press
0    1590.1966     835.4915    2173.5219    9204.2901    11.868507
Loop time of 0.695022 on 16 procs for 60 steps with 1308 atoms

Minimization stats:
  Stopping criterion = linesearch alpha is zero
  Energy initial, next-to-last, final =
  Force two-norm initial, final = 90.8478 63.912
  Force max component initial, final = 13.7885 9.91044
  Final line search alpha, max atom move = 1.74203e-12 1.72643e-11
  Iterations, force evaluations = 60 179

timestep        1
fix             pysimm_md all nvt temp 300 300 100
run             5000
PPPM initialization ...
  G vector (1/distance) = 0.0965488
  grid = 24 24 24
  stencil order = 5
  estimated absolute RMS force accuracy = 0.0301817
  estimated relative force accuracy = 9.08914e-05
  3d grid and FFT values/proc = 3179 1152
Step Temp E_pair E_mol TotEng Press
60    1590.1966     806.6925    2052.6454    9054.6146    11.968797
Loop time of 8.15728 on 16 procs for 5000 steps with 1308 atoms

unfix pysimm_md
write_dump all custom pysimm.dump.tmp id q x y z vx vy vz
quit

################################################################################
##################################    Init    ##################################
################################################################################
units           real
atom_style      full
pair_style      lj/cut/coul/long 12.0  12.0
kspace_style    pppm 1e-4
bond_style      harmonic
angle_style     harmonic
dihedral_style  fourier
improper_style  cvff
special_bonds   amber
pair_modify     mix arithmetic
read_data       temp.lmps
  orthogonal box = (-139.828 -139.828 -139.828) to (139.828 139.828 139.828)
  reading atoms ...
  1371 atoms
  reading velocities ...
  1371 velocities
  scanning bonds ...
  scanning angles ...
  scanning dihedrals ...
  scanning impropers ...
  reading bonds ...
  1443 bonds
  reading angles ...
  2506 angles
  reading dihedrals ...
  3736 dihedrals
  reading impropers ...
  382 impropers
################################################################################

min_style cg
minimize 1e-05 1e-05 10000 100000
PPPM initialization ...
  G vector (1/distance) = 0.0955115
  grid = 24 24 24
  stencil order = 5
  estimated absolute RMS force accuracy = 0.0332146
  estimated relative force accuracy = 0.000100025
  3d grid and FFT values/proc = 3179 1152
  update every 1 steps, delay 0 steps, check yes
Step Temp E_pair E_mol TotEng Press
0    704.64933    774.08796    2191.6879    5843.3592    5.9196223
Loop time of 0.544402 on 16 procs for 56 steps with 1371 atoms

Minimization stats:
  Stopping criterion = linesearch alpha is zero
  Energy initial, next-to-last, final =
  Force two-norm initial, final = 76.0228 46.6169
  Force max component initial, final = 9.96142 5.17803
  Final line search alpha, max atom move = 4.92212e-12 2.54869e-11
  Iterations, force evaluations = 56 169

timestep        1
fix             pysimm_md all nvt temp 300 300 100
run             5000
PPPM initialization ...
  G vector (1/distance) = 0.0955115
  grid = 24 24 24
  stencil order = 5
  estimated absolute RMS force accuracy = 0.0332146
  estimated relative force accuracy = 0.000100025
  3d grid and FFT values/proc = 3179 1152
Step Temp E_pair E_mol TotEng Press
56    704.64933    765.09295    2118.4714    5761.1477     6.091933
Loop time of 7.64459 on 16 procs for 5000 steps with 1371 atoms

unfix pysimm_md
write_dump all custom pysimm.dump.tmp id q x y z vx vy vz
quit

################################################################################
##################################    Init    ##################################
################################################################################
units           real
atom_style      full
pair_style      lj/cut/coul/long 12.0  12.0
kspace_style    pppm 1e-4
bond_style      harmonic
angle_style     harmonic
dihedral_style  fourier
improper_style  cvff
special_bonds   amber
pair_modify     mix arithmetic
read_data       temp.lmps
  orthogonal box = (-144.658 -144.658 -144.658) to (144.658 144.658 144.658)
  reading atoms ...
  1428 atoms
  reading velocities ...
  1428 velocities
  scanning bonds ...
  scanning angles ...
  scanning dihedrals ...
  scanning impropers ...
  reading bonds ...
  1511 bonds
  reading angles ...
  2635 angles
  reading dihedrals ...
  3910 dihedrals
  reading impropers ...
  396 impropers
################################################################################

min_style cg
minimize 1e-05 1e-05 10000 100000
PPPM initialization ...
  G vector (1/distance) = 0.0931577
  grid = 24 24 24
  stencil order = 5
  estimated absolute RMS force accuracy = 0.0328016
  estimated relative force accuracy = 9.87811e-05
  3d grid and FFT values/proc = 3179 1152
  update every 1 steps, delay 0 steps, check yes
Step Temp E_pair E_mol TotEng Press
0    806.47439    851.70309    2256.9138    6539.0492    6.6294484
Loop time of 0.491468 on 16 procs for 34 steps with 1428 atoms

Minimization stats:
  Stopping criterion = linesearch alpha is zero
  Energy initial, next-to-last, final =
  Force two-norm initial, final = 81.0033 52.9227
  Force max component initial, final = 9.89532 7.34212
  Final line search alpha, max atom move = 2.46256e-12 1.80804e-11
  Iterations, force evaluations = 34 128

timestep        1
fix             pysimm_md all nvt temp 300 300 100
run             5000
PPPM initialization ...
  G vector (1/distance) = 0.0931577
  grid = 24 24 24
  stencil order = 5
  estimated absolute RMS force accuracy = 0.0328016
  estimated relative force accuracy = 9.87811e-05
  3d grid and FFT values/proc = 3179 1152
Step Temp E_pair E_mol TotEng Press
34    806.47439    833.27868    2203.3469    6467.0579    6.1220823
Loop time of 6.95303 on 16 procs for 5000 steps with 1428 atoms

unfix pysimm_md
write_dump all custom pysimm.dump.tmp id q x y z vx vy vz
quit

################################################################################
##################################    Init    ##################################
################################################################################
units           real
atom_style      full
pair_style      lj/cut/coul/long 12.0  12.0
kspace_style    pppm 1e-4
bond_style      harmonic
angle_style     harmonic
dihedral_style  fourier
improper_style  cvff
special_bonds   amber
pair_modify     mix arithmetic
read_data       temp.lmps
  orthogonal box = (-143.769 -143.769 -143.769) to (143.769 143.769 143.769)
  reading atoms ...
  1490 atoms
  reading velocities ...
  1490 velocities
  scanning bonds ...
  scanning angles ...
  scanning dihedrals ...
  scanning impropers ...
  reading bonds ...
  1569 bonds
  reading angles ...
  2726 angles
  reading dihedrals ...
  4063 dihedrals
  reading impropers ...
  415 impropers
################################################################################

min_style cg
minimize 1e-05 1e-05 10000 100000
PPPM initialization ...
  G vector (1/distance) = 0.0935825
  grid = 24 24 24
  stencil order = 5
  estimated absolute RMS force accuracy = 0.034878
  estimated relative force accuracy = 0.000105034
  3d grid and FFT values/proc = 3179 1152
  update every 1 steps, delay 0 steps, check yes
Step Temp E_pair E_mol TotEng Press
0    957.68756    1439.5509     3981.668    9671.8444    8.8421217
Loop time of 0.423801 on 16 procs for 17 steps with 1490 atoms

Minimization stats:
  Stopping criterion = linesearch alpha is zero
  Energy initial, next-to-last, final =
  Force two-norm initial, final = 173.601 99.9698
  Force max component initial, final = 55.4514 36.3398
  Final line search alpha, max atom move = 8.39066e-13 3.04915e-11
  Iterations, force evaluations = 17 95

timestep        1
fix             pysimm_md all nvt temp 300 300 100
run             5000
PPPM initialization ...
  G vector (1/distance) = 0.0935825
  grid = 24 24 24
  stencil order = 5
  estimated absolute RMS force accuracy = 0.034878
  estimated relative force accuracy = 0.000105034
  3d grid and FFT values/proc = 3179 1152
Step Temp E_pair E_mol TotEng Press
17    957.68756    1397.7624    3978.7817    9627.1697    8.3613644
Loop time of 8.48 on 16 procs for 5000 steps with 1490 atoms

unfix pysimm_md
write_dump all custom pysimm.dump.tmp id q x y z vx vy vz
quit

################################################################################
##################################    Init    ##################################
################################################################################
units           real
atom_style      full
pair_style      lj/cut/coul/long 12.0  12.0
kspace_style    pppm 1e-4
bond_style      harmonic
angle_style     harmonic
dihedral_style  fourier
improper_style  cvff
special_bonds   amber
pair_modify     mix arithmetic
read_data       temp.lmps
  orthogonal box = (-148.569 -148.569 -148.569) to (148.569 148.569 148.569)
  reading atoms ...
  1550 atoms
  reading velocities ...
  1550 velocities
  scanning bonds ...
  scanning angles ...
  scanning dihedrals ...
  scanning impropers ...
  reading bonds ...
  1631 bonds
  reading angles ...
  2831 angles
  reading dihedrals ...
  4222 dihedrals
  reading impropers ...
  432 impropers
################################################################################

min_style cg
minimize 1e-05 1e-05 10000 100000
PPPM initialization ...
  G vector (1/distance) = 0.094134
  grid = 25 25 25
  stencil order = 5
  estimated absolute RMS force accuracy = 0.0335743
  estimated relative force accuracy = 0.000101108
  3d grid and FFT values/proc = 3888 1250
  update every 1 steps, delay 0 steps, check yes
Step Temp E_pair E_mol TotEng Press
0    932.18379    1364.0326    3786.8409    9455.0222    6.6592434
Loop time of 0.692742 on 16 procs for 50 steps with 1550 atoms

Minimization stats:
  Stopping criterion = linesearch alpha is zero
  Energy initial, next-to-last, final =
  Force two-norm initial, final = 176.704 80.8127
  Force max component initial, final = 45.311 26.6587
  Final line search alpha, max atom move = 1.50234e-12 4.00503e-11
  Iterations, force evaluations = 50 159

timestep        1
fix             pysimm_md all nvt temp 300 300 100
run             5000
PPPM initialization ...
  G vector (1/distance) = 0.094134
  grid = 25 25 25
  stencil order = 5
  estimated absolute RMS force accuracy = 0.0335743
  estimated relative force accuracy = 0.000101108
  3d grid and FFT values/proc = 3888 1250
Step Temp E_pair E_mol TotEng Press
50    932.18379    1356.9707    3563.1333    9224.2527    8.2082692
Loop time of 9.85555 on 16 procs for 5000 steps with 1550 atoms

unfix pysimm_md
write_dump all custom pysimm.dump.tmp id q x y z vx vy vz
quit

################################################################################
##################################    Init    ##################################
################################################################################
units           real
atom_style      full
pair_style      lj/cut/coul/long 12.0  12.0
kspace_style    pppm 1e-4
bond_style      harmonic
angle_style     harmonic
dihedral_style  fourier
improper_style  cvff
special_bonds   amber
pair_modify     mix arithmetic
read_data       temp.lmps
  orthogonal box = (-150.45 -150.45 -150.45) to (150.45 150.45 150.45)
  reading atoms ...
  1604 atoms
  reading velocities ...
  1604 velocities
  scanning bonds ...
  scanning angles ...
  scanning dihedrals ...
  scanning impropers ...
  reading bonds ...
  1705 bonds
  reading angles ...
  2985 angles
  reading dihedrals ...
  4413 dihedrals
  reading impropers ...
  443 impropers
################################################################################

min_style cg
minimize 1e-05 1e-05 10000 100000
PPPM initialization ...
  G vector (1/distance) = 0.0904766
  grid = 24 24 24
  stencil order = 5
  estimated absolute RMS force accuracy = 0.0337717
  estimated relative force accuracy = 0.000101702
  3d grid and FFT values/proc = 3179 1152
  update every 1 steps, delay 0 steps, check yes
Step Temp E_pair E_mol TotEng Press
0    3224.2174    893.96333    2334.6231    18634.666     23.34542
Loop time of 0.616437 on 16 procs for 38 steps with 1604 atoms

Minimization stats:
  Stopping criterion = linesearch alpha is zero
  Energy initial, next-to-last, final =
  Force two-norm initial, final = 92.4423 53.5683
  Force max component initial, final = 10.4133 6.31052
  Final line search alpha, max atom move = 2.62559e-12 1.65688e-11
  Iterations, force evaluations = 38 137

timestep        1
fix             pysimm_md all nvt temp 300 300 100
run             5000
PPPM initialization ...
  G vector (1/distance) = 0.0904766
  grid = 24 24 24
  stencil order = 5
  estimated absolute RMS force accuracy = 0.0337717
  estimated relative force accuracy = 0.000101702
  3d grid and FFT values/proc = 3179 1152
Step Temp E_pair E_mol TotEng Press
38    3224.2174    903.30492    2264.8253     18574.21    24.339073
Loop time of 9.2195 on 16 procs for 5000 steps with 1604 atoms

unfix pysimm_md
write_dump all custom pysimm.dump.tmp id q x y z vx vy vz
quit

################################################################################
##################################    Init    ##################################
################################################################################
units           real
atom_style      full
pair_style      lj/cut/coul/long 12.0  12.0
kspace_style    pppm 1e-4
bond_style      harmonic
angle_style     harmonic
dihedral_style  fourier
improper_style  cvff
special_bonds   amber
pair_modify     mix arithmetic
read_data       temp.lmps
  orthogonal box = (-152.285 -152.285 -152.285) to (152.285 152.285 152.285)
  reading atoms ...
  1670 atoms
  reading velocities ...
  1670 velocities
  scanning bonds ...
  scanning angles ...
  scanning dihedrals ...
  scanning impropers ...
  reading bonds ...
  1755 bonds
  reading angles ...
  3043 angles
  reading dihedrals ...
  4544 dihedrals
  reading impropers ...
  466 impropers
################################################################################

min_style cg
minimize 1e-05 1e-05 10000 100000
PPPM initialization ...
  G vector (1/distance) = 0.092432
  grid = 25 25 25
  stencil order = 5
  estimated absolute RMS force accuracy = 0.0355497
  estimated relative force accuracy = 0.000107057
  3d grid and FFT values/proc = 3888 1250
  update every 1 steps, delay 0 steps, check yes
Step Temp E_pair E_mol TotEng Press
0    810.29538    924.55798    2787.6228    7743.3775    6.6138723
Loop time of 0.907309 on 16 procs for 62 steps with 1670 atoms

Minimization stats:
  Stopping criterion = linesearch alpha is zero
  Energy initial, next-to-last, final =
  Force two-norm initial, final = 102.492 61.1085
  Force max component initial, final = 11.6753 6.41455
  Final line search alpha, max atom move = 1.86983e-12 1.19941e-11
  Iterations, force evaluations = 62 183

timestep        1
fix             pysimm_md all nvt temp 300 300 100
run             5000
PPPM initialization ...
  G vector (1/distance) = 0.092432
  grid = 25 25 25
  stencil order = 5
  estimated absolute RMS force accuracy = 0.0355497
  estimated relative force accuracy = 0.000107057
  3d grid and FFT values/proc = 3888 1250
Step Temp E_pair E_mol TotEng Press
62    810.29538    900.18729    2629.0005    7560.3846    6.3578016
Loop time of 10.6815 on 16 procs for 5000 steps with 1670 atoms

unfix pysimm_md
write_dump all custom pysimm.dump.tmp id q x y z vx vy vz
quit

################################################################################
##################################    Init    ##################################
################################################################################
units           real
atom_style      full
pair_style      lj/cut/coul/long 12.0  12.0
kspace_style    pppm 1e-4
bond_style      harmonic
angle_style     harmonic
dihedral_style  fourier
improper_style  cvff
special_bonds   amber
pair_modify     mix arithmetic
read_data       temp.lmps
  orthogonal box = (-151.06 -151.06 -151.06) to (151.06 151.06 151.06)
  reading atoms ...
  1720 atoms
  reading velocities ...
  1720 velocities
  scanning bonds ...
  scanning angles ...
  scanning dihedrals ...
  scanning impropers ...
  reading bonds ...
  1837 bonds
  reading angles ...
  3230 angles
  reading dihedrals ...
  4757 dihedrals
  reading impropers ...
  473 impropers
################################################################################

min_style cg
minimize 1e-05 1e-05 10000 100000
PPPM initialization ...
  G vector (1/distance) = 0.0902028
  grid = 24 24 24
  stencil order = 5
  estimated absolute RMS force accuracy = 0.0334687
  estimated relative force accuracy = 0.00010079
  3d grid and FFT values/proc = 3179 1152
  update every 1 steps, delay 0 steps, check yes
Step Temp E_pair E_mol TotEng Press
0    823.82724    1055.3454    2498.7439    7775.3904    6.8201327
Loop time of 0.573988 on 16 procs for 45 steps with 1720 atoms

Minimization stats:
  Stopping criterion = linesearch alpha is zero
  Energy initial, next-to-last, final =
  Force two-norm initial, final = 100.719 55.8121
  Force max component initial, final = 10.7635 6.17355
  Final line search alpha, max atom move = 2.69028e-12 1.66086e-11
  Iterations, force evaluations = 45 149

timestep        1
fix             pysimm_md all nvt temp 300 300 100
run             5000
PPPM initialization ...
  G vector (1/distance) = 0.0902028
  grid = 24 24 24
  stencil order = 5
  estimated absolute RMS force accuracy = 0.0334687
  estimated relative force accuracy = 0.00010079
  3d grid and FFT values/proc = 3179 1152
Step Temp E_pair E_mol TotEng Press
45    823.82724    1034.7938    2394.0488    7650.1437    6.6794055
Loop time of 9.13193 on 16 procs for 5000 steps with 1720 atoms

unfix pysimm_md
write_dump all custom pysimm.dump.tmp id q x y z vx vy vz
quit

################################################################################
##################################    Init    ##################################
################################################################################
units           real
atom_style      full
pair_style      lj/cut/coul/long 12.0  12.0
kspace_style    pppm 1e-4
bond_style      harmonic
angle_style     harmonic
dihedral_style  fourier
improper_style  cvff
special_bonds   amber
pair_modify     mix arithmetic
read_data       temp.lmps
  orthogonal box = (-152.777 -152.777 -152.777) to (152.777 152.777 152.777)
  reading atoms ...
  1782 atoms
  reading velocities ...
  1782 velocities
  scanning bonds ...
  scanning angles ...
  scanning dihedrals ...
  scanning impropers ...
  reading bonds ...
  1895 bonds
  reading angles ...
  3320 angles
  reading dihedrals ...
  4908 dihedrals
  reading impropers ...
  492 impropers
################################################################################

min_style cg
minimize 1e-05 1e-05 10000 100000
PPPM initialization ...
  G vector (1/distance) = 0.0894405
  grid = 24 24 24
  stencil order = 5
  estimated absolute RMS force accuracy = 0.0356125
  estimated relative force accuracy = 0.000107246
  3d grid and FFT values/proc = 3179 1152
  update every 1 steps, delay 0 steps, check yes
Loop time of 0.578646 on 16 procs for 22 steps with 1782 atoms

Minimization stats:
  Stopping criterion = linesearch alpha is zero
  Energy initial, next-to-last, final =
  Force two-norm initial, final = 90.6679 64.0916
  Force max component initial, final = 11.2677 6.87887
  Final line search alpha, max atom move = 1.71784e-12 1.18168e-11
  Iterations, force evaluations = 22 105

timestep        1
fix             pysimm_md all nvt temp 300 300 100
run             5000
PPPM initialization ...
  G vector (1/distance) = 0.0894405
  grid = 24 24 24
  stencil order = 5
  estimated absolute RMS force accuracy = 0.0356125
  estimated relative force accuracy = 0.000107246
  3d grid and FFT values/proc = 3179 1152
Loop time of 12.9123 on 16 procs for 5000 steps with 1782 atoms

unfix pysimm_md
write_dump all custom pysimm.dump.tmp id q x y z vx vy vz
quit

################################################################################
##################################    Init    ##################################
################################################################################
units           real
atom_style      full
pair_style      lj/cut/coul/long 12.0  12.0
kspace_style    pppm 1e-4
bond_style      harmonic
angle_style     harmonic
dihedral_style  fourier
improper_style  cvff
special_bonds   amber
pair_modify     mix arithmetic
read_data       temp.lmps
  orthogonal box = (-157.54 -157.54 -157.54) to (157.54 157.54 157.54)
  reading atoms ...
  1846 atoms
  reading velocities ...
  1846 velocities
  scanning bonds ...
  scanning angles ...
  scanning dihedrals ...
  scanning impropers ...
  reading bonds ...
  1949 bonds
  reading angles ...
  3393 angles
  reading dihedrals ...
  5047 dihedrals
  reading impropers ...
  513 impropers
################################################################################

min_style cg
minimize 1e-05 1e-05 10000 100000
PPPM initialization ...
  G vector (1/distance) = 0.095408
  grid = 27 27 27
  stencil order = 5
  estimated absolute RMS force accuracy = 0.031516
  estimated relative force accuracy = 9.49096e-05
  3d grid and FFT values/proc = 4332 1458
  update every 1 steps, delay 0 steps, check yes
Loop time of 0.72167 on 16 procs for 50 steps with 1846 atoms

Minimization stats:
  Stopping criterion = linesearch alpha is zero
  Energy initial, next-to-last, final =
  Force two-norm initial, final = 98.3337 70.0811
  Force max component initial, final = 14.7612 7.20382
  Final line search alpha, max atom move = 2.08928e-12 1.50508e-11
  Iterations, force evaluations = 50 159

timestep        1
fix             pysimm_md all nvt temp 300 300 100
run             5000
PPPM initialization ...
  G vector (1/distance) = 0.095408
  grid = 27 27 27
  stencil order = 5
  estimated absolute RMS force accuracy = 0.031516
  estimated relative force accuracy = 9.49096e-05
  3d grid and FFT values/proc = 4332 1458
Loop time of 10.0848 on 16 procs for 5000 steps with 1846 atoms

unfix pysimm_md
write_dump all custom pysimm.dump.tmp id q x y z vx vy vz
quit

################################################################################
##################################    Init    ##################################
################################################################################
units           real
atom_style      full
pair_style      lj/cut/coul/long 12.0  12.0
kspace_style    pppm 1e-4
bond_style      harmonic
angle_style     harmonic
dihedral_style  fourier
improper_style  cvff
special_bonds   amber
pair_modify     mix arithmetic
read_data       temp.lmps
  orthogonal box = (-159.216 -159.216 -159.216) to (159.216 159.216 159.216)
  reading atoms ...
  1909 atoms
  reading velocities ...
  1909 velocities
  scanning bonds ...
  scanning angles ...
  scanning dihedrals ...
  scanning impropers ...
  reading bonds ...
  2005 bonds
  reading angles ...
  3475 angles
  reading dihedrals ...
  5193 dihedrals
  reading impropers ...
  533 impropers
################################################################################

min_style cg
minimize 1e-05 1e-05 10000 100000
PPPM initialization ...
  G vector (1/distance) = 0.0946713
  grid = 27 27 27
  stencil order = 5
  estimated absolute RMS force accuracy = 0.033654
  estimated relative force accuracy = 0.000101348
  3d grid and FFT values/proc = 4332 1458
  update every 1 steps, delay 0 steps, check yes
Loop time of 0.624375 on 16 procs for 29 steps with 1909 atoms

Minimization stats:
  Stopping criterion = linesearch alpha is zero
  Energy initial, next-to-last, final =
  Force two-norm initial, final = 89.0787 66.309
  Force max component initial, final = 9.04928 7.63399
  Final line search alpha, max atom move = 2.45609e-12 1.87498e-11
  Iterations, force evaluations = 29 117

timestep        1
fix             pysimm_md all nvt temp 300 300 100
run             5000
PPPM initialization ...
  G vector (1/distance) = 0.0946713
  grid = 27 27 27
  stencil order = 5
  estimated absolute RMS force accuracy = 0.033654
  estimated relative force accuracy = 0.000101348
  3d grid and FFT values/proc = 4332 1458
Loop time of 13.9778 on 16 procs for 5000 steps with 1909 atoms

unfix pysimm_md
write_dump all custom pysimm.dump.tmp id q x y z vx vy vz
quit

################################################################################
##################################    Init    ##################################
################################################################################
units           real
atom_style      full
pair_style      lj/cut/coul/long 12.0  12.0
kspace_style    pppm 1e-4
bond_style      harmonic
angle_style     harmonic
dihedral_style  fourier
improper_style  cvff
special_bonds   amber
pair_modify     mix arithmetic
read_data       temp.lmps
  orthogonal box = (-160.858 -160.858 -160.858) to (160.858 160.858 160.858)
  reading atoms ...
  1965 atoms
  reading velocities ...
  1965 velocities
  scanning bonds ...
  scanning angles ...
  scanning dihedrals ...
  scanning impropers ...
  reading bonds ...
  2075 bonds
  reading angles ...
  3613 angles
  reading dihedrals ...
  5374 dihedrals
  reading impropers ...
  546 impropers
################################################################################

min_style cg
minimize 1e-05 1e-05 10000 100000
PPPM initialization ...
  G vector (1/distance) = 0.0939603
  grid = 27 27 27
  stencil order = 5
  estimated absolute RMS force accuracy = 0.0327434
  estimated relative force accuracy = 9.86058e-05
  3d grid and FFT values/proc = 4332 1458
  update every 1 steps, delay 0 steps, check yes
Loop time of 0.651722 on 16 procs for 38 steps with 1965 atoms

Minimization stats:
  Stopping criterion = linesearch alpha is zero
  Energy initial, next-to-last, final =
  Force two-norm initial, final = 90.6363 61.6739
  Force max component initial, final = 12.2439 7.54315
  Final line search alpha, max atom move = 2.3989e-12 1.80953e-11
  Iterations, force evaluations = 38 135

timestep        1
fix             pysimm_md all nvt temp 300 300 100
run             5000
PPPM initialization ...
  G vector (1/distance) = 0.0939603
  grid = 27 27 27
  stencil order = 5
  estimated absolute RMS force accuracy = 0.0327434
  estimated relative force accuracy = 9.86058e-05
  3d grid and FFT values/proc = 4332 1458
Loop time of 9.73881 on 16 procs for 5000 steps with 1965 atoms

unfix pysimm_md
write_dump all custom pysimm.dump.tmp id q x y z vx vy vz
quit

################################################################################
##################################    Init    ##################################
################################################################################
units           real
atom_style      full
pair_style      lj/cut/coul/long 12.0  12.0
kspace_style    pppm 1e-4
bond_style      harmonic
angle_style     harmonic
dihedral_style  fourier
improper_style  cvff
special_bonds   amber
pair_modify     mix arithmetic
read_data       temp.lmps
  orthogonal box = (-162.467 -162.467 -162.467) to (162.467 162.467 162.467)
  reading atoms ...
  2021 atoms
  reading velocities ...
  2021 velocities
  scanning bonds ...
  scanning angles ...
  scanning dihedrals ...
  scanning impropers ...
  reading bonds ...
  2145 bonds
  reading angles ...
  3751 angles
  reading dihedrals ...
  5555 dihedrals
  reading impropers ...
  559 impropers
################################################################################

min_style cg
minimize 1e-05 1e-05 10000 100000
PPPM initialization ...
  G vector (1/distance) = 0.0932736
  grid = 27 27 27
  stencil order = 5
  estimated absolute RMS force accuracy = 0.0318508
  estimated relative force accuracy = 9.59176e-05
  3d grid and FFT values/proc = 4332 1458
  update every 1 steps, delay 0 steps, check yes
Loop time of 0.749294 on 16 procs for 55 steps with 2021 atoms

Minimization stats:
  Stopping criterion = linesearch alpha is zero
  Energy initial, next-to-last, final =
  Force two-norm initial, final = 101.23 61.4184
  Force max component initial, final = 13.4716 10.3781
  Final line search alpha, max atom move = 2.30292e-12 2.39001e-11
  Iterations, force evaluations = 55 169

timestep        1
fix             pysimm_md all nvt temp 300 300 100
run             5000
PPPM initialization ...
  G vector (1/distance) = 0.0932736
  grid = 27 27 27
  stencil order = 5
  estimated absolute RMS force accuracy = 0.0318508
  estimated relative force accuracy = 9.59176e-05
  3d grid and FFT values/proc = 4332 1458
Loop time of 12.214 on 16 procs for 5000 steps with 2021 atoms

unfix pysimm_md
write_dump all custom pysimm.dump.tmp id q x y z vx vy vz
quit

################################################################################
##################################    Init    ##################################
################################################################################
units           real
atom_style      full
pair_style      lj/cut/coul/long 12.0  12.0
kspace_style    pppm 1e-4
bond_style      harmonic
angle_style     harmonic
dihedral_style  fourier
improper_style  cvff
special_bonds   amber
pair_modify     mix arithmetic
read_data       temp.lmps
  orthogonal box = (-160.833 -160.833 -160.833) to (160.833 160.833 160.833)
  reading atoms ...
  2082 atoms
  reading velocities ...
  2082 velocities
  scanning bonds ...
  scanning angles ...
  scanning dihedrals ...
  scanning impropers ...
  reading bonds ...
  2205 bonds
  reading angles ...
  3850 angles
  reading dihedrals ...
  5713 dihedrals
  reading impropers ...
  577 impropers
################################################################################

min_style cg
minimize 1e-05 1e-05 10000 100000
PPPM initialization ...
  G vector (1/distance) = 0.0939713
  grid = 27 27 27
  stencil order = 5
  estimated absolute RMS force accuracy = 0.0328478
  estimated relative force accuracy = 9.89201e-05
  3d grid and FFT values/proc = 4332 1458
  update every 1 steps, delay 0 steps, check yes
Loop time of 0.742741 on 16 procs for 49 steps with 2082 atoms

Minimization stats:
  Stopping criterion = linesearch alpha is zero
  Energy initial, next-to-last, final =
  Force two-norm initial, final = 93.4074 59.9213
  Force max component initial, final = 12.6877 6.46147
  Final line search alpha, max atom move = 2.07409e-12 1.34017e-11
  Iterations, force evaluations = 49 157

timestep        1
fix             pysimm_md all nvt temp 300 300 100
run             5000
PPPM initialization ...
  G vector (1/distance) = 0.0939713
  grid = 27 27 27
  stencil order = 5
  estimated absolute RMS force accuracy = 0.0328478
  estimated relative force accuracy = 9.89201e-05
  3d grid and FFT values/proc = 4332 1458
Loop time of 11.3384 on 16 procs for 5000 steps with 2082 atoms

unfix pysimm_md
write_dump all custom pysimm.dump.tmp id q x y z vx vy vz
quit

################################################################################
##################################    Init    ##################################
################################################################################
units           real
atom_style      full
pair_style      lj/cut/coul/long 12.0  12.0
kspace_style    pppm 1e-4
bond_style      harmonic
angle_style     harmonic
dihedral_style  fourier
improper_style  cvff
special_bonds   amber
pair_modify     mix arithmetic
read_data       temp.lmps
  orthogonal box = (-165.592 -165.592 -165.592) to (165.592 165.592 165.592)
  reading atoms ...
  2143 atoms
  reading velocities ...
  2143 velocities
  scanning bonds ...
  scanning angles ...
  scanning dihedrals ...
  scanning impropers ...
  reading bonds ...
  2265 bonds
  reading angles ...
  3947 angles
  reading dihedrals ...
  5867 dihedrals
  reading impropers ...
  595 impropers
################################################################################

min_style cg
minimize 1e-05 1e-05 10000 100000
PPPM initialization ...
  G vector (1/distance) = 0.0919659
  grid = 27 27 27
  stencil order = 5
  estimated absolute RMS force accuracy = 0.0342753
  estimated relative force accuracy = 0.000103219
  3d grid and FFT values/proc = 4332 1458
  update every 1 steps, delay 0 steps, check yes
Loop time of 0.599816 on 16 procs for 56 steps with 2143 atoms

Minimization stats:
  Stopping criterion = linesearch alpha is zero
  Energy initial, next-to-last, final =
  Force two-norm initial, final = 106.622 57.2114
  Force max component initial, final = 12.7597 6.45516
  Final line search alpha, max atom move = 3.22169e-12 2.07965e-11
  Iterations, force evaluations = 56 171

timestep        1
fix             pysimm_md all nvt temp 300 300 100
run             5000
PPPM initialization ...
  G vector (1/distance) = 0.0919659
  grid = 27 27 27
  stencil order = 5
  estimated absolute RMS force accuracy = 0.0342753
  estimated relative force accuracy = 0.000103219
  3d grid and FFT values/proc = 4332 1458
Loop time of 7.89452 on 16 procs for 5000 steps with 2143 atoms

unfix pysimm_md
write_dump all custom pysimm.dump.tmp id q x y z vx vy vz
quit

################################################################################
##################################    Init    ##################################
################################################################################
units           real
atom_style      full
pair_style      lj/cut/coul/long 12.0  12.0
kspace_style    pppm 1e-4
bond_style      harmonic
angle_style     harmonic
dihedral_style  fourier
improper_style  cvff
special_bonds   amber
pair_modify     mix arithmetic
read_data       temp.lmps
  orthogonal box = (-167.111 -167.111 -167.111) to (167.111 167.111 167.111)
  reading atoms ...
  2206 atoms
  reading velocities ...
  2206 velocities
  scanning bonds ...
  scanning angles ...
  scanning dihedrals ...
  scanning impropers ...
  reading bonds ...
  2321 bonds
  reading angles ...
  4029 angles
  reading dihedrals ...
  6013 dihedrals
  reading impropers ...
  615 impropers
################################################################################

min_style cg
minimize 1e-05 1e-05 10000 100000
PPPM initialization ...
  G vector (1/distance) = 0.098672
  grid = 30 30 30
  stencil order = 5
  estimated absolute RMS force accuracy = 0.0296774
  estimated relative force accuracy = 8.93727e-05
  3d grid and FFT values/proc = 5200 1800
  update every 1 steps, delay 0 steps, check yes
Loop time of 1.39041 on 16 procs for 92 steps with 2206 atoms

Minimization stats:
  Stopping criterion = linesearch alpha is zero
  Energy initial, next-to-last, final =
  Force two-norm initial, final = 95.8352 57.9926
  Force max component initial, final = 10.0502 6.08583
  Final line search alpha, max atom move = 2.39947e-12 1.46028e-11
  Iterations, force evaluations = 92 242

timestep        1
fix             pysimm_md all nvt temp 300 300 100
run             5000
PPPM initialization ...
  G vector (1/distance) = 0.098672
  grid = 30 30 30
  stencil order = 5
  estimated absolute RMS force accuracy = 0.0296774
  estimated relative force accuracy = 8.93727e-05
  3d grid and FFT values/proc = 5200 1800
Loop time of 15.9588 on 16 procs for 5000 steps with 2206 atoms

unfix pysimm_md
write_dump all custom pysimm.dump.tmp id q x y z vx vy vz
quit

################################################################################
##################################    Init    ##################################
################################################################################
units           real
atom_style      full
pair_style      lj/cut/coul/long 12.0  12.0
kspace_style    pppm 1e-4
bond_style      harmonic
angle_style     harmonic
dihedral_style  fourier
improper_style  cvff
special_bonds   amber
pair_modify     mix arithmetic
read_data       temp.lmps
  orthogonal box = (-168.603 -168.603 -168.603) to (168.603 168.603 168.603)
  reading atoms ...
  2257 atoms
  reading velocities ...
  2257 velocities
  scanning bonds ...
  scanning angles ...
  scanning dihedrals ...
  scanning impropers ...
  reading bonds ...
  2401 bonds
  reading angles ...
  4207 angles
  reading dihedrals ...
  6219 dihedrals
  reading impropers ...
  623 impropers
################################################################################

min_style cg
minimize 1e-05 1e-05 10000 100000
PPPM initialization ...
  G vector (1/distance) = 0.0907388
  grid = 27 27 27
  stencil order = 5
  estimated absolute RMS force accuracy = 0.0333457
  estimated relative force accuracy = 0.00010042
  3d grid and FFT values/proc = 4332 1458
  update every 1 steps, delay 0 steps, check yes
Loop time of 0.566565 on 16 procs for 29 steps with 2257 atoms

Minimization stats:
  Stopping criterion = linesearch alpha is zero
  Energy initial, next-to-last, final =
  Force two-norm initial, final = 117.942 93.8295
  Force max component initial, final = 13.7307 10.763
  Final line search alpha, max atom move = 8.04359e-13 8.65732e-12
  Iterations, force evaluations = 29 119

timestep        1
fix             pysimm_md all nvt temp 300 300 100
run             5000
PPPM initialization ...
  G vector (1/distance) = 0.0907388
  grid = 27 27 27
  stencil order = 5
  estimated absolute RMS force accuracy = 0.0333457
  estimated relative force accuracy = 0.00010042
  3d grid and FFT values/proc = 4332 1458
Loop time of 13.2669 on 16 procs for 5000 steps with 2257 atoms

unfix pysimm_md
write_dump all custom pysimm.dump.tmp id q x y z vx vy vz
quit

################################################################################
##################################    Init    ##################################
################################################################################
units           real
atom_style      full
pair_style      lj/cut/coul/long 12.0  12.0
kspace_style    pppm 1e-4
bond_style      harmonic
angle_style     harmonic
dihedral_style  fourier
improper_style  cvff
special_bonds   amber
pair_modify     mix arithmetic
read_data       temp.lmps
  orthogonal box = (-170.069 -170.069 -170.069) to (170.069 170.069 170.069)
  reading atoms ...
  2322 atoms
  reading velocities ...
  2322 velocities
  scanning bonds ...
  scanning angles ...
  scanning dihedrals ...
  scanning impropers ...
  reading bonds ...
  2453 bonds
  reading angles ...
  4273 angles
  reading dihedrals ...
  6355 dihedrals
  reading impropers ...
  645 impropers
################################################################################

min_style cg
minimize 1e-05 1e-05 10000 100000
PPPM initialization ...
  G vector (1/distance) = 0.0974305
  grid = 30 30 30
  stencil order = 5
  estimated absolute RMS force accuracy = 0.0296673
  estimated relative force accuracy = 8.93423e-05
  3d grid and FFT values/proc = 5200 1800
  update every 1 steps, delay 0 steps, check yes
Loop time of 1.02637 on 16 procs for 99 steps with 2322 atoms

Minimization stats:
  Stopping criterion = linesearch alpha is zero
  Energy initial, next-to-last, final =
  Force two-norm initial, final = 101.762 42.8004
  Force max component initial, final = 11.5031 5.90865
  Final line search alpha, max atom move = 4.24921e-12 2.51071e-11
  Iterations, force evaluations = 99 265

timestep        1
fix             pysimm_md all nvt temp 300 300 100
run             5000
PPPM initialization ...
  G vector (1/distance) = 0.0974305
  grid = 30 30 30
  stencil order = 5
  estimated absolute RMS force accuracy = 0.0296673
  estimated relative force accuracy = 8.93423e-05
  3d grid and FFT values/proc = 5200 1800
Loop time of 10.4437 on 16 procs for 5000 steps with 2322 atoms

unfix pysimm_md
write_dump all custom pysimm.dump.tmp id q x y z vx vy vz
quit

################################################################################
##################################    Init    ##################################
################################################################################
units           real
atom_style      full
pair_style      lj/cut/coul/long 12.0  12.0
kspace_style    pppm 1e-4
bond_style      harmonic
angle_style     harmonic
dihedral_style  fourier
improper_style  cvff
special_bonds   amber
pair_modify     mix arithmetic
read_data       temp.lmps
  orthogonal box = (-171.511 -171.511 -171.511) to (171.511 171.511 171.511)
  reading atoms ...
  2384 atoms
  reading velocities ...
  2384 velocities
  scanning bonds ...
  scanning angles ...
  scanning dihedrals ...
  scanning impropers ...
  reading bonds ...
  2511 bonds
  reading angles ...
  4363 angles
  reading dihedrals ...
  6506 dihedrals
  reading impropers ...
  664 impropers
################################################################################

min_style cg
minimize 1e-05 1e-05 10000 100000
PPPM initialization ...
  G vector (1/distance) = 0.0968362
  grid = 30 30 30
  stencil order = 5
  estimated absolute RMS force accuracy = 0.030969
  estimated relative force accuracy = 9.32623e-05
  3d grid and FFT values/proc = 5200 1800
  update every 1 steps, delay 0 steps, check yes
Loop time of 0.392601 on 16 procs for 10 steps with 2384 atoms

Minimization stats:
  Stopping criterion = linesearch alpha is zero
  Energy initial, next-to-last, final =
  Force two-norm initial, final = 108.185 84.3866
  Force max component initial, final = 9.52085 7.90343
  Final line search alpha, max atom move = 1.32711e-12 1.04887e-11
  Iterations, force evaluations = 10 81

timestep        1
fix             pysimm_md all nvt temp 300 300 100
run             5000
PPPM initialization ...
  G vector (1/distance) = 0.0968362
  grid = 30 30 30
  stencil order = 5
  estimated absolute RMS force accuracy = 0.030969
  estimated relative force accuracy = 9.32623e-05
  3d grid and FFT values/proc = 5200 1800
Loop time of 11.6993 on 16 procs for 5000 steps with 2384 atoms

unfix pysimm_md
write_dump all custom pysimm.dump.tmp id q x y z vx vy vz
quit

################################################################################
##################################    Init    ##################################
################################################################################
units           real
atom_style      full
pair_style      lj/cut/coul/long 12.0  12.0
kspace_style    pppm 1e-4
bond_style      harmonic
angle_style     harmonic
dihedral_style  fourier
improper_style  cvff
special_bonds   amber
pair_modify     mix arithmetic
read_data       temp.lmps
  orthogonal box = (-169.543 -169.543 -169.543) to (169.543 169.543 169.543)
  reading atoms ...
  2436 atoms
  reading velocities ...
  2436 velocities
  scanning bonds ...
  scanning angles ...
  scanning dihedrals ...
  scanning impropers ...
  reading bonds ...
  2589 bonds
  reading angles ...
  4534 angles
  reading dihedrals ...
  6709 dihedrals
  reading impropers ...
  673 impropers
################################################################################

min_style cg
minimize 1e-05 1e-05 10000 100000
PPPM initialization ...
  G vector (1/distance) = 0.0903621
  grid = 27 27 27
  stencil order = 5
  estimated absolute RMS force accuracy = 0.0350081
  estimated relative force accuracy = 0.000105426
  3d grid and FFT values/proc = 4332 1458
  update every 1 steps, delay 0 steps, check yes
Loop time of 1.02797 on 16 procs for 43 steps with 2436 atoms

Minimization stats:
  Stopping criterion = linesearch alpha is zero
  Energy initial, next-to-last, final =
  Force two-norm initial, final = 124.027 68.2412
  Force max component initial, final = 17.3889 7.90182
  Final line search alpha, max atom move = 1.68353e-12 1.33029e-11
  Iterations, force evaluations = 43 145

timestep        1
fix             pysimm_md all nvt temp 300 300 100
run             5000
PPPM initialization ...
  G vector (1/distance) = 0.0903621
  grid = 27 27 27
  stencil order = 5
  estimated absolute RMS force accuracy = 0.0350081
  estimated relative force accuracy = 0.000105426
  3d grid and FFT values/proc = 4332 1458
Loop time of 14.2582 on 16 procs for 5000 steps with 2436 atoms

unfix pysimm_md
write_dump all custom pysimm.dump.tmp id q x y z vx vy vz
quit

################################################################################
##################################    Init    ##################################
################################################################################
units           real
atom_style      full
pair_style      lj/cut/coul/long 12.0  12.0
kspace_style    pppm 1e-4
bond_style      harmonic
angle_style     harmonic
dihedral_style  fourier
improper_style  cvff
special_bonds   amber
pair_modify     mix arithmetic
read_data       temp.lmps
  orthogonal box = (-170.91 -170.91 -170.91) to (170.91 170.91 170.91)
  reading atoms ...
  2498 atoms
  reading velocities ...
  2498 velocities
  scanning bonds ...
  scanning angles ...
  scanning dihedrals ...
  scanning impropers ...
  reading bonds ...
  2647 bonds
  reading angles ...
  4624 angles
  reading dihedrals ...
  6860 dihedrals
  reading impropers ...
  692 impropers
################################################################################

min_style cg
minimize 1e-05 1e-05 10000 100000
PPPM initialization ...
  G vector (1/distance) = 0.0970831
  grid = 30 30 30
  stencil order = 5
  estimated absolute RMS force accuracy = 0.0300254
  estimated relative force accuracy = 9.04206e-05
  3d grid and FFT values/proc = 5200 1800
  update every 1 steps, delay 0 steps, check yes
Loop time of 1.50705 on 16 procs for 85 steps with 2498 atoms

Minimization stats:
  Stopping criterion = linesearch alpha is zero
  Energy initial, next-to-last, final =
  Force two-norm initial, final = 98.2978 55.0978
  Force max component initial, final = 10.7324 6.14323
  Final line search alpha, max atom move = 3.03069e-12 1.86182e-11
  Iterations, force evaluations = 85 239

timestep        1
fix             pysimm_md all nvt temp 300 300 100
run             5000
PPPM initialization ...
  G vector (1/distance) = 0.0970831
  grid = 30 30 30
  stencil order = 5
  estimated absolute RMS force accuracy = 0.0300254
  estimated relative force accuracy = 9.04206e-05
  3d grid and FFT values/proc = 5200 1800
Loop time of 16.6413 on 16 procs for 5000 steps with 2498 atoms

unfix pysimm_md
write_dump all custom pysimm.dump.tmp id q x y z vx vy vz
quit

################################################################################
##################################    Init    ##################################
################################################################################
units           real
atom_style      full
pair_style      lj/cut/coul/long 12.0  12.0
kspace_style    pppm 1e-4
bond_style      harmonic
angle_style     harmonic
dihedral_style  fourier
improper_style  cvff
special_bonds   amber
pair_modify     mix arithmetic
read_data       temp.lmps
  orthogonal box = (-172.256 -172.256 -172.256) to (172.256 172.256 172.256)
  reading atoms ...
  2562 atoms
  reading velocities ...
  2562 velocities
  scanning bonds ...
  scanning angles ...
  scanning dihedrals ...
  scanning impropers ...
  reading bonds ...
  2701 bonds
  reading angles ...
  4698 angles
  reading dihedrals ...
  7001 dihedrals
  reading impropers ...
  713 impropers
################################################################################

min_style cg
minimize 1e-05 1e-05 10000 100000
PPPM initialization ...
  G vector (1/distance) = 0.0965316
  grid = 30 30 30
  stencil order = 5
  estimated absolute RMS force accuracy = 0.0319202
  estimated relative force accuracy = 9.61268e-05
  3d grid and FFT values/proc = 5200 1800
  update every 1 steps, delay 0 steps, check yes
Loop time of 0.766673 on 16 procs for 48 steps with 2562 atoms

Minimization stats:
  Stopping criterion = energy tolerance
  Energy initial, next-to-last, final =
  Force two-norm initial, final = 277.226 142.82
  Force max component initial, final = 44.5625 58.7619
  Final line search alpha, max atom move = 0.00172751 0.101512
  Iterations, force evaluations = 48 96

timestep        1
fix             pysimm_md all nvt temp 300 300 100
run             5000
PPPM initialization ...
  G vector (1/distance) = 0.0965316
  grid = 30 30 30
  stencil order = 5
  estimated absolute RMS force accuracy = 0.0319202
  estimated relative force accuracy = 9.61268e-05
  3d grid and FFT values/proc = 5200 1800
Loop time of 15.5965 on 16 procs for 5000 steps with 2562 atoms

unfix pysimm_md
write_dump all custom pysimm.dump.tmp id q x y z vx vy vz
quit

################################################################################
##################################    Init    ##################################
################################################################################
units           real
atom_style      full
pair_style      lj/cut/coul/long 12.0  12.0
kspace_style    pppm 1e-4
bond_style      harmonic
angle_style     harmonic
dihedral_style  fourier
improper_style  cvff
special_bonds   amber
pair_modify     mix arithmetic
read_data       temp.lmps
  orthogonal box = (-173.581 -173.581 -173.581) to (173.581 173.581 173.581)
  reading atoms ...
  2612 atoms
  reading velocities ...
  2612 velocities
  scanning bonds ...
  scanning angles ...
  scanning dihedrals ...
  scanning impropers ...
  reading bonds ...
  2783 bonds
  reading angles ...
  4884 angles
  reading dihedrals ...
  7212 dihedrals
  reading impropers ...
  720 impropers
################################################################################

min_style cg
minimize 1e-05 1e-05 10000 100000
PPPM initialization ...
  G vector (1/distance) = 0.0887772
  grid = 27 27 27
  stencil order = 5
  estimated absolute RMS force accuracy = 0.0356146
  estimated relative force accuracy = 0.000107252
  3d grid and FFT values/proc = 4332 1458
  update every 1 steps, delay 0 steps, check yes
Loop time of 1.10426 on 16 procs for 90 steps with 2612 atoms

Minimization stats:
  Stopping criterion = linesearch alpha is zero
  Energy initial, next-to-last, final =
  Force two-norm initial, final = 293.239 135.327
  Force max component initial, final = 67.861 37.4953
  Final line search alpha, max atom move = 4.07051e-13 1.52625e-11
  Iterations, force evaluations = 90 240

timestep        1
fix             pysimm_md all nvt temp 300 300 100
run             5000
PPPM initialization ...
  G vector (1/distance) = 0.0887772
  grid = 27 27 27
  stencil order = 5
  estimated absolute RMS force accuracy = 0.0356146
  estimated relative force accuracy = 0.000107252
  3d grid and FFT values/proc = 4332 1458
Loop time of 13.4635 on 16 procs for 5000 steps with 2612 atoms

unfix pysimm_md
write_dump all custom pysimm.dump.tmp id q x y z vx vy vz
quit

################################################################################
##################################    Init    ##################################
################################################################################
units           real
atom_style      full
pair_style      lj/cut/coul/long 12.0  12.0
kspace_style    pppm 1e-4
bond_style      harmonic
angle_style     harmonic
dihedral_style  fourier
improper_style  cvff
special_bonds   amber
pair_modify     mix arithmetic
read_data       temp.lmps
  orthogonal box = (-178.378 -178.378 -178.378) to (178.378 178.378 178.378)
  reading atoms ...
  2680 atoms
  reading velocities ...
  2680 velocities
  scanning bonds ...
  scanning angles ...
  scanning dihedrals ...
  scanning impropers ...
  reading bonds ...
  2829 bonds
  reading angles ...
  4925 angles
  reading dihedrals ...
  7331 dihedrals
  reading impropers ...
  745 impropers
################################################################################

min_style cg
minimize 1e-05 1e-05 10000 100000
PPPM initialization ...
  G vector (1/distance) = 0.094097
  grid = 30 30 30
  stencil order = 5
  estimated absolute RMS force accuracy = 0.0327648
  estimated relative force accuracy = 9.86703e-05
  3d grid and FFT values/proc = 5200 1800
  update every 1 steps, delay 0 steps, check yes
Loop time of 1.04803 on 16 procs for 41 steps with 2680 atoms

Minimization stats:
  Stopping criterion = linesearch alpha is zero
  Energy initial, next-to-last, final =
  Force two-norm initial, final = 121.153 76.7958
  Force max component initial, final = 12.0903 8.71054
  Final line search alpha, max atom move = 1.17045e-12 1.01952e-11
  Iterations, force evaluations = 41 143

timestep        1
fix             pysimm_md all nvt temp 300 300 100
run             5000
PPPM initialization ...
  G vector (1/distance) = 0.094097
  grid = 30 30 30
  stencil order = 5
  estimated absolute RMS force accuracy = 0.0327648
  estimated relative force accuracy = 9.86703e-05
  3d grid and FFT values/proc = 5200 1800
Loop time of 17.185 on 16 procs for 5000 steps with 2680 atoms

unfix pysimm_md
write_dump all custom pysimm.dump.tmp id q x y z vx vy vz
quit

################################################################################
##################################    Init    ##################################
################################################################################
units           real
atom_style      full
pair_style      lj/cut/coul/long 12.0  12.0
kspace_style    pppm 1e-4
bond_style      harmonic
angle_style     harmonic
dihedral_style  fourier
improper_style  cvff
special_bonds   amber
pair_modify     mix arithmetic
read_data       temp.lmps
  orthogonal box = (-176.172 -176.172 -176.172) to (176.172 176.172 176.172)
  reading atoms ...
  2740 atoms
  reading velocities ...
  2740 velocities
  scanning bonds ...
  scanning angles ...
  scanning dihedrals ...
  scanning impropers ...
  reading bonds ...
  2891 bonds
  reading angles ...
  5032 angles
  reading dihedrals ...
  7494 dihedrals
  reading impropers ...
  762 impropers
################################################################################

min_style cg
minimize 1e-05 1e-05 10000 100000
PPPM initialization ...
  G vector (1/distance) = 0.0949607
  grid = 30 30 30
  stencil order = 5
  estimated absolute RMS force accuracy = 0.0331038
  estimated relative force accuracy = 9.96911e-05
  3d grid and FFT values/proc = 5200 1800
  update every 1 steps, delay 0 steps, check yes
Loop time of 0.676825 on 16 procs for 47 steps with 2740 atoms

Minimization stats:
  Stopping criterion = energy tolerance
  Energy initial, next-to-last, final =
  Force two-norm initial, final = 113.098 65.0737
  Force max component initial, final = 19.7889 6.02199
  Final line search alpha, max atom move = 0.00286689 0.0172644
  Iterations, force evaluations = 47 90

timestep        1
fix             pysimm_md all nvt temp 300 300 100
run             5000
PPPM initialization ...
  G vector (1/distance) = 0.0949607
  grid = 30 30 30
  stencil order = 5
  estimated absolute RMS force accuracy = 0.0331038
  estimated relative force accuracy = 9.96911e-05
  3d grid and FFT values/proc = 5200 1800
Loop time of 24.5377 on 16 procs for 5000 steps with 2740 atoms

unfix pysimm_md
write_dump all custom pysimm.dump.tmp id q x y z vx vy vz
quit

################################################################################
##################################    Init    ##################################
################################################################################
units           real
atom_style      full
pair_style      lj/cut/coul/long 12.0  12.0
kspace_style    pppm 1e-4
bond_style      harmonic
angle_style     harmonic
dihedral_style  fourier
improper_style  cvff
special_bonds   amber
pair_modify     mix arithmetic
read_data       temp.lmps
  orthogonal box = (-177.44 -177.44 -177.44) to (177.44 177.44 177.44)
  reading atoms ...
  2802 atoms
  reading velocities ...
  2802 velocities
  scanning bonds ...
  scanning angles ...
  scanning dihedrals ...
  scanning impropers ...
  reading bonds ...
  2949 bonds
  reading angles ...
  5122 angles
  reading dihedrals ...
  7645 dihedrals
  reading impropers ...
  781 impropers
################################################################################

min_style cg
minimize 1e-05 1e-05 10000 100000
PPPM initialization ...
  G vector (1/distance) = 0.0944626
  grid = 30 30 30
  stencil order = 5
  estimated absolute RMS force accuracy = 0.0343011
  estimated relative force accuracy = 0.000103297
  3d grid and FFT values/proc = 5200 1800
  update every 1 steps, delay 0 steps, check yes
Loop time of 1.21053 on 16 procs for 69 steps with 2802 atoms

Minimization stats:
  Stopping criterion = linesearch alpha is zero
  Energy initial, next-to-last, final =
  Force two-norm initial, final = 131.277 58.9148
  Force max component initial, final = 17.5772 4.85499
  Final line search alpha, max atom move = 2.79662e-12 1.35775e-11
  Iterations, force evaluations = 69 192

timestep        1
fix             pysimm_md all nvt temp 300 300 100
run             5000
PPPM initialization ...
  G vector (1/distance) = 0.0944626
  grid = 30 30 30
  stencil order = 5
  estimated absolute RMS force accuracy = 0.0343011
  estimated relative force accuracy = 0.000103297
  3d grid and FFT values/proc = 5200 1800
Loop time of 17.5773 on 16 procs for 5000 steps with 2802 atoms

unfix pysimm_md
write_dump all custom pysimm.dump.tmp id q x y z vx vy vz
quit

################################################################################
##################################    Init    ##################################
################################################################################
units           real
atom_style      full
pair_style      lj/cut/coul/long 12.0  12.0
kspace_style    pppm 1e-4
bond_style      harmonic
angle_style     harmonic
dihedral_style  fourier
improper_style  cvff
special_bonds   amber
pair_modify     mix arithmetic
read_data       temp.lmps
  orthogonal box = (-182.257 -182.257 -182.257) to (182.257 182.257 182.257)
  reading atoms ...
  2857 atoms
  reading velocities ...
  2857 velocities
  scanning bonds ...
  scanning angles ...
  scanning dihedrals ...
  scanning impropers ...
  reading bonds ...
  3021 bonds
  reading angles ...
  5267 angles
  reading dihedrals ...
  7829 dihedrals
  reading impropers ...
  793 impropers
################################################################################

min_style cg
minimize 1e-05 1e-05 10000 100000
PPPM initialization ...
  G vector (1/distance) = 0.0926142
  grid = 30 30 30
  stencil order = 5
  estimated absolute RMS force accuracy = 0.0335878
  estimated relative force accuracy = 0.000101149
  3d grid and FFT values/proc = 5200 1800
  update every 1 steps, delay 0 steps, check yes
Loop time of 1.41866 on 16 procs for 105 steps with 2857 atoms

Minimization stats:
  Stopping criterion = linesearch alpha is zero
  Energy initial, next-to-last, final =
  Force two-norm initial, final = 180.279 96.1508
  Force max component initial, final = 60.5219 39.8149
  Final line search alpha, max atom move = 9.75962e-13 3.88578e-11
  Iterations, force evaluations = 105 271

timestep        1
fix             pysimm_md all nvt temp 300 300 100
run             5000
PPPM initialization ...
  G vector (1/distance) = 0.0926142
  grid = 30 30 30
  stencil order = 5
  estimated absolute RMS force accuracy = 0.0335878
  estimated relative force accuracy = 0.000101149
  3d grid and FFT values/proc = 5200 1800
Loop time of 23.0328 on 16 procs for 5000 steps with 2857 atoms

unfix pysimm_md
write_dump all custom pysimm.dump.tmp id q x y z vx vy vz
quit

################################################################################
##################################    Init    ##################################
################################################################################
units           real
atom_style      full
pair_style      lj/cut/coul/long 12.0  12.0
kspace_style    pppm 1e-4
bond_style      harmonic
angle_style     harmonic
dihedral_style  fourier
improper_style  cvff
special_bonds   amber
pair_modify     mix arithmetic
read_data       temp.lmps
  orthogonal box = (-183.514 -183.514 -183.514) to (183.514 183.514 183.514)
  reading atoms ...
  2917 atoms
  reading velocities ...
  2917 velocities
  scanning bonds ...
  scanning angles ...
  scanning dihedrals ...
  scanning impropers ...
  reading bonds ...
  3083 bonds
  reading angles ...
  5373 angles
  reading dihedrals ...
  7990 dihedrals
  reading impropers ...
  810 impropers
################################################################################

min_style cg
minimize 1e-05 1e-05 10000 100000
PPPM initialization ...
  G vector (1/distance) = 0.0921432
  grid = 30 30 30
  stencil order = 5
  estimated absolute RMS force accuracy = 0.0341567
  estimated relative force accuracy = 0.000102862
  3d grid and FFT values/proc = 5200 1800
  update every 1 steps, delay 0 steps, check yes
Loop time of 1.27259 on 16 procs for 49 steps with 2917 atoms

Minimization stats:
  Stopping criterion = linesearch alpha is zero
  Energy initial, next-to-last, final =
  Force two-norm initial, final = 183.354 99.6776
  Force max component initial, final = 75.5641 29.5849
  Final line search alpha, max atom move = 6.7941e-13 2.01003e-11
  Iterations, force evaluations = 49 159

timestep        1
fix             pysimm_md all nvt temp 300 300 100
run             5000
PPPM initialization ...
  G vector (1/distance) = 0.0921432
  grid = 30 30 30
  stencil order = 5
  estimated absolute RMS force accuracy = 0.0341567
  estimated relative force accuracy = 0.000102862
  3d grid and FFT values/proc = 5200 1800
Loop time of 25.5661 on 16 procs for 5000 steps with 2917 atoms

unfix pysimm_md
write_dump all custom pysimm.dump.tmp id q x y z vx vy vz
quit

################################################################################
##################################    Init    ##################################
################################################################################
units           real
atom_style      full
pair_style      lj/cut/coul/long 12.0  12.0
kspace_style    pppm 1e-4
bond_style      harmonic
angle_style     harmonic
dihedral_style  fourier
improper_style  cvff
special_bonds   amber
pair_modify     mix arithmetic
read_data       temp.lmps
  orthogonal box = (-184.754 -184.754 -184.754) to (184.754 184.754 184.754)
  reading atoms ...
  2978 atoms
  reading velocities ...
  2978 velocities
  scanning bonds ...
  scanning angles ...
  scanning dihedrals ...
  scanning impropers ...
  reading bonds ...
  3143 bonds
  reading angles ...
  5471 angles
  reading dihedrals ...
  8146 dihedrals
  reading impropers ...
  828 impropers
################################################################################

min_style cg
minimize 1e-05 1e-05 10000 100000
PPPM initialization ...
  G vector (1/distance) = 0.091683
  grid = 30 30 30
  stencil order = 5
  estimated absolute RMS force accuracy = 0.0350173
  estimated relative force accuracy = 0.000105454
  3d grid and FFT values/proc = 5200 1800
  update every 1 steps, delay 0 steps, check yes
Loop time of 0.942672 on 16 procs for 60 steps with 2978 atoms

Minimization stats:
  Stopping criterion = linesearch alpha is zero
  Energy initial, next-to-last, final =
  Force two-norm initial, final = 120.825 64.2445
  Force max component initial, final = 20.192 6.79975
  Final line search alpha, max atom move = 2.06469e-12 1.40394e-11
  Iterations, force evaluations = 60 177

timestep        1
fix             pysimm_md all nvt temp 300 300 100
run             5000
PPPM initialization ...
  G vector (1/distance) = 0.091683
  grid = 30 30 30
  stencil order = 5
  estimated absolute RMS force accuracy = 0.0350173
  estimated relative force accuracy = 0.000105454
  3d grid and FFT values/proc = 5200 1800
Loop time of 18.6024 on 16 procs for 5000 steps with 2978 atoms

unfix pysimm_md
write_dump all custom pysimm.dump.tmp id q x y z vx vy vz
quit
