################################################################################
##################################    Init    ##################################
################################################################################
units           real
atom_style      full
pair_style      lj/cut/coul/long 12.0  12.0
kspace_style    pppm 1e-4
bond_style      harmonic
angle_style     harmonic
dihedral_style  fourier
improper_style  cvff
special_bonds   amber
pair_modify     mix arithmetic
read_data       temp.lmps
  orthogonal box = (-108.105 -108.105 -108.105) to (108.105 108.105 108.105)
  reading atoms ...
  574 atoms
  reading velocities ...
  574 velocities
  scanning bonds ...
  scanning angles ...
  scanning dihedrals ...
  scanning impropers ...
  reading bonds ...
  630 bonds
  reading angles ...
  1089 angles
  reading dihedrals ...
  1670 dihedrals
  reading impropers ...
  188 impropers
################################################################################

min_style cg
minimize 1e-05 1e-05 10000 100000
PPPM initialization ...
  G vector (1/distance) = 0.0813258
  grid = 15 15 15
  stencil order = 5
  estimated absolute RMS force accuracy = 0.0352645
  estimated relative force accuracy = 0.000106198
  3d grid and FFT values/proc = 1521 256
  update every 1 steps, delay 0 steps, check yes
Step Temp E_pair E_mol TotEng Press
0    2156.8387    195.12654    1148.1789     5027.195    16.534264
Loop time of 0.312482 on 16 procs for 53 steps with 574 atoms

Minimization stats:
  Stopping criterion = linesearch alpha is zero
  Energy initial, next-to-last, final =
  Force two-norm initial, final = 81.2954 62.8834
  Force max component initial, final = 10.0804 8.30957
  Final line search alpha, max atom move = 2.21207e-12 1.83814e-11
  Iterations, force evaluations = 53 165

timestep        1
fix             pysimm_md all nvt temp 300 300 100
run             5000
PPPM initialization ...
  G vector (1/distance) = 0.0813258
  grid = 15 15 15
  stencil order = 5
  estimated absolute RMS force accuracy = 0.0352645
  estimated relative force accuracy = 0.000106198
  3d grid and FFT values/proc = 1521 256
Step Temp E_pair E_mol TotEng Press
53    2156.8387    173.88244    1052.3586    4910.1305    14.875176
Loop time of 3.55234 on 16 procs for 5000 steps with 574 atoms

unfix pysimm_md
write_dump all custom pysimm.dump.tmp id q x y z vx vy vz
quit

################################################################################
##################################    Init    ##################################
################################################################################
units           real
atom_style      full
pair_style      lj/cut/coul/long 12.0  12.0
kspace_style    pppm 1e-4
bond_style      harmonic
angle_style     harmonic
dihedral_style  fourier
improper_style  cvff
special_bonds   amber
pair_modify     mix arithmetic
read_data       temp.lmps
  orthogonal box = (-108.449 -108.449 -108.449) to (108.449 108.449 108.449)
  reading atoms ...
  624 atoms
  reading velocities ...
  624 velocities
  scanning bonds ...
  scanning angles ...
  scanning dihedrals ...
  scanning impropers ...
  reading bonds ...
  682 bonds
  reading angles ...
  1192 angles
  reading dihedrals ...
  1796 dihedrals
  reading impropers ...
  192 impropers
################################################################################

min_style cg
minimize 1e-05 1e-05 10000 100000
PPPM initialization ...
  G vector (1/distance) = 0.0811231
  grid = 15 15 15
  stencil order = 5
  estimated absolute RMS force accuracy = 0.0361364
  estimated relative force accuracy = 0.000108824
  3d grid and FFT values/proc = 1521 256
  update every 1 steps, delay 0 steps, check yes
Step Temp E_pair E_mol TotEng Press
0    1986.0798    225.97192    1084.7188    4998.9297    17.379371
Loop time of 0.278205 on 16 procs for 44 steps with 624 atoms

Minimization stats:
  Stopping criterion = linesearch alpha is zero
  Energy initial, next-to-last, final =
  Force two-norm initial, final = 75.8994 47.2659
  Force max component initial, final = 10.5561 4.92321
  Final line search alpha, max atom move = 3.39389e-12 1.67088e-11
  Iterations, force evaluations = 44 201

timestep        1
fix             pysimm_md all nvt temp 300 300 100
run             5000
PPPM initialization ...
  G vector (1/distance) = 0.0811231
  grid = 15 15 15
  stencil order = 5
  estimated absolute RMS force accuracy = 0.0361364
  estimated relative force accuracy = 0.000108824
  3d grid and FFT values/proc = 1521 256
Step Temp E_pair E_mol TotEng Press
44    1986.0798    205.64127    999.56468    4893.4449    16.027921
Loop time of 3.3562 on 16 procs for 5000 steps with 624 atoms

unfix pysimm_md
write_dump all custom pysimm.dump.tmp id q x y z vx vy vz
quit

################################################################################
##################################    Init    ##################################
################################################################################
units           real
atom_style      full
pair_style      lj/cut/coul/long 12.0  12.0
kspace_style    pppm 1e-4
bond_style      harmonic
angle_style     harmonic
dihedral_style  fourier
improper_style  cvff
special_bonds   amber
pair_modify     mix arithmetic
read_data       temp.lmps
  orthogonal box = (-111.64 -111.64 -111.64) to (111.64 111.64 111.64)
  reading atoms ...
  684 atoms
  reading velocities ...
  684 velocities
  scanning bonds ...
  scanning angles ...
  scanning dihedrals ...
  scanning impropers ...
  reading bonds ...
  749 bonds
  reading angles ...
  1304 angles
  reading dihedrals ...
  1980 dihedrals
  reading impropers ...
  216 impropers
################################################################################

min_style cg
minimize 1e-05 1e-05 10000 100000
PPPM initialization ...
  G vector (1/distance) = 0.0833955
  grid = 16 16 16
  stencil order = 5
  estimated absolute RMS force accuracy = 0.0345706
  estimated relative force accuracy = 0.000104108
  3d grid and FFT values/proc = 1521 256
  update every 1 steps, delay 0 steps, check yes
Step Temp E_pair E_mol TotEng Press
0    2023.0634    218.57082    1300.6296    5637.9415    17.389404
Loop time of 0.114618 on 16 procs for 5 steps with 684 atoms

Minimization stats:
  Stopping criterion = linesearch alpha is zero
  Energy initial, next-to-last, final =
  Force two-norm initial, final = 77.428 57.7933
  Force max component initial, final = 7.99369 5.96284
  Final line search alpha, max atom move = 3.19537e-12 1.90535e-11
  Iterations, force evaluations = 5 71

timestep        1
fix             pysimm_md all nvt temp 300 300 100
run             5000
PPPM initialization ...
  G vector (1/distance) = 0.0833955
  grid = 16 16 16
  stencil order = 5
  estimated absolute RMS force accuracy = 0.0345706
  estimated relative force accuracy = 0.000104108
  3d grid and FFT values/proc = 1521 256
Step Temp E_pair E_mol TotEng Press
5    2023.0634    215.81737    1296.3928    5630.9512    17.617652
Loop time of 3.69228 on 16 procs for 5000 steps with 684 atoms

unfix pysimm_md
write_dump all custom pysimm.dump.tmp id q x y z vx vy vz
quit

################################################################################
##################################    Init    ##################################
################################################################################
units           real
atom_style      full
pair_style      lj/cut/coul/long 12.0  12.0
kspace_style    pppm 1e-4
bond_style      harmonic
angle_style     harmonic
dihedral_style  fourier
improper_style  cvff
special_bonds   amber
pair_modify     mix arithmetic
read_data       temp.lmps
  orthogonal box = (-117.985 -117.985 -117.985) to (117.985 117.985 117.985)
  reading atoms ...
  738 atoms
  reading velocities ...
  738 velocities
  scanning bonds ...
  scanning angles ...
  scanning dihedrals ...
  scanning impropers ...
  reading bonds ...
  807 bonds
  reading angles ...
  1409 angles
  reading dihedrals ...
  2126 dihedrals
  reading impropers ...
  228 impropers
################################################################################

min_style cg
minimize 1e-05 1e-05 10000 100000
PPPM initialization ...
  G vector (1/distance) = 0.0798803
  grid = 16 16 16
  stencil order = 5
  estimated absolute RMS force accuracy = 0.0356871
  estimated relative force accuracy = 0.000107471
  3d grid and FFT values/proc = 1521 256
  update every 1 steps, delay 0 steps, check yes
Step Temp E_pair E_mol TotEng Press
0    849.96743    220.43701    1064.3608    3152.0547    6.8136567
Loop time of 0.163432 on 16 procs for 5 steps with 738 atoms

Minimization stats:
  Stopping criterion = linesearch alpha is zero
  Energy initial, next-to-last, final =
  Force two-norm initial, final = 47.4186 36.4044
  Force max component initial, final = 8.825 6.39236
  Final line search alpha, max atom move = 8.84018e-12 5.65096e-11
  Iterations, force evaluations = 5 69

timestep        1
fix             pysimm_md all nvt temp 300 300 100
run             5000
PPPM initialization ...
  G vector (1/distance) = 0.0798803
  grid = 16 16 16
  stencil order = 5
  estimated absolute RMS force accuracy = 0.0356871
  estimated relative force accuracy = 0.000107471
  3d grid and FFT values/proc = 1521 256
Step Temp E_pair E_mol TotEng Press
5    849.96743    220.25946     1061.513    3149.0293     6.813496
Loop time of 5.20873 on 16 procs for 5000 steps with 738 atoms

unfix pysimm_md
write_dump all custom pysimm.dump.tmp id q x y z vx vy vz
quit

################################################################################
##################################    Init    ##################################
################################################################################
units           real
atom_style      full
pair_style      lj/cut/coul/long 12.0  12.0
kspace_style    pppm 1e-4
bond_style      harmonic
angle_style     harmonic
dihedral_style  fourier
improper_style  cvff
special_bonds   amber
pair_modify     mix arithmetic
read_data       temp.lmps
  orthogonal box = (-120.935 -120.935 -120.935) to (120.935 120.935 120.935)
  reading atoms ...
  800 atoms
  reading velocities ...
  800 velocities
  scanning bonds ...
  scanning angles ...
  scanning dihedrals ...
  scanning impropers ...
  reading bonds ...
  877 bonds
  reading angles ...
  1523 angles
  reading dihedrals ...
  2322 dihedrals
  reading impropers ...
  256 impropers
################################################################################

min_style cg
minimize 1e-05 1e-05 10000 100000
PPPM initialization ...
  G vector (1/distance) = 0.085854
  grid = 18 18 18
  stencil order = 5
  estimated absolute RMS force accuracy = 0.0313434
  estimated relative force accuracy = 9.43898e-05
  3d grid and FFT values/proc = 1960 648
  update every 1 steps, delay 0 steps, check yes
Step Temp E_pair E_mol TotEng Press
0     1519.391    252.66663    1373.3209    5244.6712      11.4115
Loop time of 0.173365 on 16 procs for 9 steps with 800 atoms

Minimization stats:
  Stopping criterion = linesearch alpha is zero
  Energy initial, next-to-last, final =
  Force two-norm initial, final = 73.6654 56.3331
  Force max component initial, final = 9.37999 7.62609
  Final line search alpha, max atom move = 2.16289e-12 1.64944e-11
  Iterations, force evaluations = 9 79

timestep        1
fix             pysimm_md all nvt temp 300 300 100
run             5000
PPPM initialization ...
  G vector (1/distance) = 0.085854
  grid = 18 18 18
  stencil order = 5
  estimated absolute RMS force accuracy = 0.0313434
  estimated relative force accuracy = 9.43898e-05
  3d grid and FFT values/proc = 1960 648
Step Temp E_pair E_mol TotEng Press
9     1519.391    246.65606    1365.1919    5230.5316    11.287111
Loop time of 4.17023 on 16 procs for 5000 steps with 800 atoms

unfix pysimm_md
write_dump all custom pysimm.dump.tmp id q x y z vx vy vz
quit

################################################################################
##################################    Init    ##################################
################################################################################
units           real
atom_style      full
pair_style      lj/cut/coul/long 12.0  12.0
kspace_style    pppm 1e-4
bond_style      harmonic
angle_style     harmonic
dihedral_style  fourier
improper_style  cvff
special_bonds   amber
pair_modify     mix arithmetic
read_data       temp.lmps
  orthogonal box = (-123.749 -123.749 -123.749) to (123.749 123.749 123.749)
  reading atoms ...
  850 atoms
  reading velocities ...
  850 velocities
  scanning bonds ...
  scanning angles ...
  scanning dihedrals ...
  scanning impropers ...
  reading bonds ...
  929 bonds
  reading angles ...
  1625 angles
  reading dihedrals ...
  2446 dihedrals
  reading impropers ...
  260 impropers
################################################################################

min_style cg
minimize 1e-05 1e-05 10000 100000
PPPM initialization ...
  G vector (1/distance) = 0.0843524
  grid = 18 18 18
  stencil order = 5
  estimated absolute RMS force accuracy = 0.0319865
  estimated relative force accuracy = 9.63263e-05
  3d grid and FFT values/proc = 1960 648
  update every 1 steps, delay 0 steps, check yes
Step Temp E_pair E_mol TotEng Press
0    1741.9152    312.71176    1285.7448    6006.7348    12.709595
Loop time of 0.151856 on 16 procs for 13 steps with 850 atoms

Minimization stats:
  Stopping criterion = linesearch alpha is zero
  Energy initial, next-to-last, final =
  Force two-norm initial, final = 81.1657 48.1971
  Force max component initial, final = 8.83622 5.28191
  Final line search alpha, max atom move = 3.00231e-12 1.58579e-11
  Iterations, force evaluations = 13 87

timestep        1
fix             pysimm_md all nvt temp 300 300 100
run             5000
PPPM initialization ...
  G vector (1/distance) = 0.0843524
  grid = 18 18 18
  stencil order = 5
  estimated absolute RMS force accuracy = 0.0319865
  estimated relative force accuracy = 9.63263e-05
  3d grid and FFT values/proc = 1960 648
Step Temp E_pair E_mol TotEng Press
13    1741.9152    312.91816    1266.6164    5987.8127    13.104619
Loop time of 3.89396 on 16 procs for 5000 steps with 850 atoms

unfix pysimm_md
write_dump all custom pysimm.dump.tmp id q x y z vx vy vz
quit

################################################################################
##################################    Init    ##################################
################################################################################
units           real
atom_style      full
pair_style      lj/cut/coul/long 12.0  12.0
kspace_style    pppm 1e-4
bond_style      harmonic
angle_style     harmonic
dihedral_style  fourier
improper_style  cvff
special_bonds   amber
pair_modify     mix arithmetic
read_data       temp.lmps
  orthogonal box = (-126.44 -126.44 -126.44) to (126.44 126.44 126.44)
  reading atoms ...
  916 atoms
  reading velocities ...
  916 velocities
  scanning bonds ...
  scanning angles ...
  scanning dihedrals ...
  scanning impropers ...
  reading bonds ...
  1005 bonds
  reading angles ...
  1743 angles
  reading dihedrals ...
  2666 dihedrals
  reading impropers ...
  296 impropers
################################################################################

min_style cg
minimize 1e-05 1e-05 10000 100000
PPPM initialization ...
  G vector (1/distance) = 0.0829625
  grid = 18 18 18
  stencil order = 5
  estimated absolute RMS force accuracy = 0.0337491
  estimated relative force accuracy = 0.000101635
  3d grid and FFT values/proc = 1960 648
  update every 1 steps, delay 0 steps, check yes
Step Temp E_pair E_mol TotEng Press
0    1546.0122    297.60675    1715.6647    6229.9289    11.531338
Loop time of 0.628987 on 16 procs for 51 steps with 916 atoms

Minimization stats:
  Stopping criterion = linesearch alpha is zero
  Energy initial, next-to-last, final =
  Force two-norm initial, final = 94.8623 53.1654
  Force max component initial, final = 11.47 6.04455
  Final line search alpha, max atom move = 3.03382e-12 1.83381e-11
  Iterations, force evaluations = 51 161

timestep        1
fix             pysimm_md all nvt temp 300 300 100
run             5000
PPPM initialization ...
  G vector (1/distance) = 0.0829625
  grid = 18 18 18
  stencil order = 5
  estimated absolute RMS force accuracy = 0.0337491
  estimated relative force accuracy = 0.000101635
  3d grid and FFT values/proc = 1960 648
Step Temp E_pair E_mol TotEng Press
51    1546.0122     276.0228    1594.8426    6087.5228    11.705478
Loop time of 7.09891 on 16 procs for 5000 steps with 916 atoms

unfix pysimm_md
write_dump all custom pysimm.dump.tmp id q x y z vx vy vz
quit

################################################################################
##################################    Init    ##################################
################################################################################
units           real
atom_style      full
pair_style      lj/cut/coul/long 12.0  12.0
kspace_style    pppm 1e-4
bond_style      harmonic
angle_style     harmonic
dihedral_style  fourier
improper_style  cvff
special_bonds   amber
pair_modify     mix arithmetic
read_data       temp.lmps
  orthogonal box = (-125.384 -125.384 -125.384) to (125.384 125.384 125.384)
  reading atoms ...
  966 atoms
  reading velocities ...
  966 velocities
  scanning bonds ...
  scanning angles ...
  scanning dihedrals ...
  scanning impropers ...
  reading bonds ...
  1057 bonds
  reading angles ...
  1846 angles
  reading dihedrals ...
  2792 dihedrals
  reading impropers ...
  300 impropers
################################################################################

min_style cg
minimize 1e-05 1e-05 10000 100000
PPPM initialization ...
  G vector (1/distance) = 0.0835046
  grid = 18 18 18
  stencil order = 5
  estimated absolute RMS force accuracy = 0.0342715
  estimated relative force accuracy = 0.000103208
  3d grid and FFT values/proc = 1960 648
  update every 1 steps, delay 0 steps, check yes
Step Temp E_pair E_mol TotEng Press
0    1312.7713    320.23697    1556.9325    5653.3321    10.654203
Loop time of 0.326285 on 16 procs for 6 steps with 966 atoms

Minimization stats:
  Stopping criterion = linesearch alpha is zero
  Energy initial, next-to-last, final =
  Force two-norm initial, final = 76.8856 62.9462
  Force max component initial, final = 12.3076 8.33949
  Final line search alpha, max atom move = 2.05887e-12 1.71699e-11
  Iterations, force evaluations = 6 73

timestep        1
fix             pysimm_md all nvt temp 300 300 100
run             5000
PPPM initialization ...
  G vector (1/distance) = 0.0835046
  grid = 18 18 18
  stencil order = 5
  estimated absolute RMS force accuracy = 0.0342715
  estimated relative force accuracy = 0.000103208
  3d grid and FFT values/proc = 1960 648
Step Temp E_pair E_mol TotEng Press
6    1312.7713    317.41083     1547.846    5641.4195    10.761863
Loop time of 8.25928 on 16 procs for 5000 steps with 966 atoms

unfix pysimm_md
write_dump all custom pysimm.dump.tmp id q x y z vx vy vz
quit

################################################################################
##################################    Init    ##################################
################################################################################
units           real
atom_style      full
pair_style      lj/cut/coul/long 12.0  12.0
kspace_style    pppm 1e-4
bond_style      harmonic
angle_style     harmonic
dihedral_style  fourier
improper_style  cvff
special_bonds   amber
pair_modify     mix arithmetic
read_data       temp.lmps
  orthogonal box = (-131.503 -131.503 -131.503) to (131.503 131.503 131.503)
  reading atoms ...
  1024 atoms
  reading velocities ...
  1024 velocities
  scanning bonds ...
  scanning angles ...
  scanning dihedrals ...
  scanning impropers ...
  reading bonds ...
  1121 bonds
  reading angles ...
  1955 angles
  reading dihedrals ...
  2962 dihedrals
  reading impropers ...
  320 impropers
################################################################################

min_style cg
minimize 1e-05 1e-05 10000 100000
PPPM initialization ...
  G vector (1/distance) = 0.080466
  grid = 18 18 18
  stencil order = 5
  estimated absolute RMS force accuracy = 0.0353555
  estimated relative force accuracy = 0.000106472
  3d grid and FFT values/proc = 1960 648
  update every 1 steps, delay 0 steps, check yes
Step Temp E_pair E_mol TotEng Press
0    1397.5799    350.58105    1638.5559    6250.8733    9.3076769
Loop time of 0.180919 on 16 procs for 8 steps with 1024 atoms

Minimization stats:
  Stopping criterion = linesearch alpha is zero
  Energy initial, next-to-last, final =
  Force two-norm initial, final = 78.2782 59.2292
  Force max component initial, final = 9.17783 6.61699
  Final line search alpha, max atom move = 1.97346e-12 1.30583e-11
  Iterations, force evaluations = 8 77

timestep        1
fix             pysimm_md all nvt temp 300 300 100
run             5000
PPPM initialization ...
  G vector (1/distance) = 0.080466
  grid = 18 18 18
  stencil order = 5
  estimated absolute RMS force accuracy = 0.0353555
  estimated relative force accuracy = 0.000106472
  3d grid and FFT values/proc = 1960 648
Step Temp E_pair E_mol TotEng Press
8    1397.5799     349.6236    1624.3276    6235.6875     9.561263
Loop time of 6.94246 on 16 procs for 5000 steps with 1024 atoms

unfix pysimm_md
write_dump all custom pysimm.dump.tmp id q x y z vx vy vz
quit

################################################################################
##################################    Init    ##################################
################################################################################
units           real
atom_style      full
pair_style      lj/cut/coul/long 12.0  12.0
kspace_style    pppm 1e-4
bond_style      harmonic
angle_style     harmonic
dihedral_style  fourier
improper_style  cvff
special_bonds   amber
pair_modify     mix arithmetic
read_data       temp.lmps
  orthogonal box = (-133.894 -133.894 -133.894) to (133.894 133.894 133.894)
  reading atoms ...
  1092 atoms
  reading velocities ...
  1092 velocities
  scanning bonds ...
  scanning angles ...
  scanning dihedrals ...
  scanning impropers ...
  reading bonds ...
  1200 bonds
  reading angles ...
  2075 angles
  reading dihedrals ...
  3194 dihedrals
  reading impropers ...
  360 impropers
################################################################################

min_style cg
minimize 1e-05 1e-05 10000 100000
PPPM initialization ...
  G vector (1/distance) = 0.0860884
  grid = 20 20 20
  stencil order = 5
  estimated absolute RMS force accuracy = 0.0315142
  estimated relative force accuracy = 9.49039e-05
  3d grid and FFT values/proc = 2250 800
  update every 1 steps, delay 0 steps, check yes
Step Temp E_pair E_mol TotEng Press
0     1104.467      364.868    2020.1121    5976.7772      7.31159
Loop time of 0.348185 on 16 procs for 49 steps with 1092 atoms

Minimization stats:
  Stopping criterion = linesearch alpha is zero
  Energy initial, next-to-last, final =
  Force two-norm initial, final = 91.7548 68.8671
  Force max component initial, final = 12.0715 8.20765
  Final line search alpha, max atom move = 1.5968e-12 1.31059e-11
  Iterations, force evaluations = 49 157

timestep        1
fix             pysimm_md all nvt temp 300 300 100
run             5000
PPPM initialization ...
  G vector (1/distance) = 0.0860884
  grid = 20 20 20
  stencil order = 5
  estimated absolute RMS force accuracy = 0.0315142
  estimated relative force accuracy = 9.49039e-05
  3d grid and FFT values/proc = 2250 800
Step Temp E_pair E_mol TotEng Press
49     1104.467    345.05687    1920.8963    5857.7502    7.1904337
Loop time of 5.52463 on 16 procs for 5000 steps with 1092 atoms

unfix pysimm_md
write_dump all custom pysimm.dump.tmp id q x y z vx vy vz
quit

################################################################################
##################################    Init    ##################################
################################################################################
units           real
atom_style      full
pair_style      lj/cut/coul/long 12.0  12.0
kspace_style    pppm 1e-4
bond_style      harmonic
angle_style     harmonic
dihedral_style  fourier
improper_style  cvff
special_bonds   amber
pair_modify     mix arithmetic
read_data       temp.lmps
  orthogonal box = (-136.203 -136.203 -136.203) to (136.203 136.203 136.203)
  reading atoms ...
  1142 atoms
  reading velocities ...
  1142 velocities
  scanning bonds ...
  scanning angles ...
  scanning dihedrals ...
  scanning impropers ...
  reading bonds ...
  1252 bonds
  reading angles ...
  2177 angles
  reading dihedrals ...
  3318 dihedrals
  reading impropers ...
  364 impropers
################################################################################

min_style cg
minimize 1e-05 1e-05 10000 100000
PPPM initialization ...
  G vector (1/distance) = 0.0849685
  grid = 20 20 20
  stencil order = 5
  estimated absolute RMS force accuracy = 0.0319866
  estimated relative force accuracy = 9.63268e-05
  3d grid and FFT values/proc = 2250 800
  update every 1 steps, delay 0 steps, check yes
Step Temp E_pair E_mol TotEng Press
0    1409.2448    372.99006    1988.8946     7154.873    11.014194
Loop time of 0.511239 on 16 procs for 55 steps with 1142 atoms

Minimization stats:
  Stopping criterion = linesearch alpha is zero
  Energy initial, next-to-last, final =
  Force two-norm initial, final = 94.0831 65.3656
  Force max component initial, final = 11.3185 11.8379
  Final line search alpha, max atom move = 2.53899e-12 3.00562e-11
  Iterations, force evaluations = 55 169

timestep        1
fix             pysimm_md all nvt temp 300 300 100
run             5000
PPPM initialization ...
  G vector (1/distance) = 0.0849685
  grid = 20 20 20
  stencil order = 5
  estimated absolute RMS force accuracy = 0.0319866
  estimated relative force accuracy = 9.63268e-05
  3d grid and FFT values/proc = 2250 800
Step Temp E_pair E_mol TotEng Press
55    1409.2448    342.92588    1878.8283    7014.7426    10.227458
Loop time of 6.63755 on 16 procs for 5000 steps with 1142 atoms

unfix pysimm_md
write_dump all custom pysimm.dump.tmp id q x y z vx vy vz
quit

################################################################################
##################################    Init    ##################################
################################################################################
units           real
atom_style      full
pair_style      lj/cut/coul/long 12.0  12.0
kspace_style    pppm 1e-4
bond_style      harmonic
angle_style     harmonic
dihedral_style  fourier
improper_style  cvff
special_bonds   amber
pair_modify     mix arithmetic
read_data       temp.lmps
  orthogonal box = (-134.534 -134.534 -134.534) to (134.534 134.534 134.534)
  reading atoms ...
  1196 atoms
  reading velocities ...
  1196 velocities
  scanning bonds ...
  scanning angles ...
  scanning dihedrals ...
  scanning impropers ...
  reading bonds ...
  1310 bonds
  reading angles ...
  2284 angles
  reading dihedrals ...
  3468 dihedrals
  reading impropers ...
  376 impropers
################################################################################

min_style cg
minimize 1e-05 1e-05 10000 100000
PPPM initialization ...
  G vector (1/distance) = 0.0857751
  grid = 20 20 20
  stencil order = 5
  estimated absolute RMS force accuracy = 0.0325667
  estimated relative force accuracy = 9.80737e-05
  3d grid and FFT values/proc = 2250 800
  update every 1 steps, delay 0 steps, check yes
Step Temp E_pair E_mol TotEng Press
0    840.75478    396.58723    2035.2253    5426.6382    5.3049341
Loop time of 0.385525 on 16 procs for 10 steps with 1196 atoms

Minimization stats:
  Stopping criterion = linesearch alpha is zero
  Energy initial, next-to-last, final =
  Force two-norm initial, final = 88.7121 68.819
  Force max component initial, final = 11.9206 7.76444
  Final line search alpha, max atom move = 1.99867e-12 1.55186e-11
  Iterations, force evaluations = 10 81

timestep        1
fix             pysimm_md all nvt temp 300 300 100
run             5000
PPPM initialization ...
  G vector (1/distance) = 0.0857751
  grid = 20 20 20
  stencil order = 5
  estimated absolute RMS force accuracy = 0.0325667
  estimated relative force accuracy = 9.80737e-05
  3d grid and FFT values/proc = 2250 800
Step Temp E_pair E_mol TotEng Press
10    840.75478    402.60078    2005.5617    5402.9882    6.0467887
Loop time of 7.96028 on 16 procs for 5000 steps with 1196 atoms

unfix pysimm_md
write_dump all custom pysimm.dump.tmp id q x y z vx vy vz
quit

################################################################################
##################################    Init    ##################################
################################################################################
units           real
atom_style      full
pair_style      lj/cut/coul/long 12.0  12.0
kspace_style    pppm 1e-4
bond_style      harmonic
angle_style     harmonic
dihedral_style  fourier
improper_style  cvff
special_bonds   amber
pair_modify     mix arithmetic
read_data       temp.lmps
  orthogonal box = (-136.637 -136.637 -136.637) to (136.637 136.637 136.637)
  reading atoms ...
  1252 atoms
  reading velocities ...
  1252 velocities
  scanning bonds ...
  scanning angles ...
  scanning dihedrals ...
  scanning impropers ...
  reading bonds ...
  1371 bonds
  reading angles ...
  2392 angles
  reading dihedrals ...
  3628 dihedrals
  reading impropers ...
  392 impropers
################################################################################

min_style cg
minimize 1e-05 1e-05 10000 100000
PPPM initialization ...
  G vector (1/distance) = 0.0847613
  grid = 20 20 20
  stencil order = 5
  estimated absolute RMS force accuracy = 0.0333377
  estimated relative force accuracy = 0.000100395
  3d grid and FFT values/proc = 2250 800
  update every 1 steps, delay 0 steps, check yes
Step Temp E_pair E_mol TotEng Press
0    1546.6765    378.80668    2083.8262    8230.1794    12.601387
Loop time of 0.42499 on 16 procs for 22 steps with 1252 atoms

Minimization stats:
  Stopping criterion = linesearch alpha is zero
  Energy initial, next-to-last, final =
  Force two-norm initial, final = 76.76 56.947
  Force max component initial, final = 10.4666 6.20973
  Final line search alpha, max atom move = 3.36704e-12 2.09084e-11
  Iterations, force evaluations = 22 103

timestep        1
fix             pysimm_md all nvt temp 300 300 100
run             5000
PPPM initialization ...
  G vector (1/distance) = 0.0847613
  grid = 20 20 20
  stencil order = 5
  estimated absolute RMS force accuracy = 0.0333377
  estimated relative force accuracy = 0.000100395
  3d grid and FFT values/proc = 2250 800
Step Temp E_pair E_mol TotEng Press
22    1546.6765    376.92094    2039.9779    8184.4454    12.852325
Loop time of 8.77412 on 16 procs for 5000 steps with 1252 atoms

unfix pysimm_md
write_dump all custom pysimm.dump.tmp id q x y z vx vy vz
quit

################################################################################
##################################    Init    ##################################
################################################################################
units           real
atom_style      full
pair_style      lj/cut/coul/long 12.0  12.0
kspace_style    pppm 1e-4
bond_style      harmonic
angle_style     harmonic
dihedral_style  fourier
improper_style  cvff
special_bonds   amber
pair_modify     mix arithmetic
read_data       temp.lmps
  orthogonal box = (-138.676 -138.676 -138.676) to (138.676 138.676 138.676)
  reading atoms ...
  1308 atoms
  reading velocities ...
  1308 velocities
  scanning bonds ...
  scanning angles ...
  scanning dihedrals ...
  scanning impropers ...
  reading bonds ...
  1432 bonds
  reading angles ...
  2500 angles
  reading dihedrals ...
  3788 dihedrals
  reading impropers ...
  408 impropers
################################################################################

min_style cg
minimize 1e-05 1e-05 10000 100000
PPPM initialization ...
  G vector (1/distance) = 0.083802
  grid = 20 20 20
  stencil order = 5
  estimated absolute RMS force accuracy = 0.0340818
  estimated relative force accuracy = 0.000102636
  3d grid and FFT values/proc = 2250 800
  update every 1 steps, delay 0 steps, check yes
Step Temp E_pair E_mol TotEng Press
0    3751.4624    461.45967    2238.2603    17315.113    26.674872
Loop time of 0.2708 on 16 procs for 19 steps with 1308 atoms

Minimization stats:
  Stopping criterion = linesearch alpha is zero
  Energy initial, next-to-last, final =
  Force two-norm initial, final = 92.8011 54.4512
  Force max component initial, final = 11.8338 7.20686
  Final line search alpha, max atom move = 2.7623e-12 1.99075e-11
  Iterations, force evaluations = 19 97

timestep        1
fix             pysimm_md all nvt temp 300 300 100
run             5000
PPPM initialization ...
  G vector (1/distance) = 0.083802
  grid = 20 20 20
  stencil order = 5
  estimated absolute RMS force accuracy = 0.0340818
  estimated relative force accuracy = 0.000102636
  3d grid and FFT values/proc = 2250 800
Step Temp E_pair E_mol TotEng Press
19    3751.4624      462.078    2214.9226    17292.393     26.99018
Loop time of 5.81452 on 16 procs for 5000 steps with 1308 atoms

unfix pysimm_md
write_dump all custom pysimm.dump.tmp id q x y z vx vy vz
quit

################################################################################
##################################    Init    ##################################
################################################################################
units           real
atom_style      full
pair_style      lj/cut/coul/long 12.0  12.0
kspace_style    pppm 1e-4
bond_style      harmonic
angle_style     harmonic
dihedral_style  fourier
improper_style  cvff
special_bonds   amber
pair_modify     mix arithmetic
read_data       temp.lmps
  orthogonal box = (-144.738 -144.738 -144.738) to (144.738 144.738 144.738)
  reading atoms ...
  1362 atoms
  reading velocities ...
  1362 velocities
  scanning bonds ...
  scanning angles ...
  scanning dihedrals ...
  scanning impropers ...
  reading bonds ...
  1490 bonds
  reading angles ...
  2605 angles
  reading dihedrals ...
  3934 dihedrals
  reading impropers ...
  420 impropers
################################################################################

min_style cg
minimize 1e-05 1e-05 10000 100000
PPPM initialization ...
  G vector (1/distance) = 0.0810617
  grid = 20 20 20
  stencil order = 5
  estimated absolute RMS force accuracy = 0.0346955
  estimated relative force accuracy = 0.000104484
  3d grid and FFT values/proc = 2250 800
  update every 1 steps, delay 0 steps, check yes
Step Temp E_pair E_mol TotEng Press
0     651.4291    440.12934    2128.6856    5211.5863    4.7703241
Loop time of 0.222925 on 16 procs for 4 steps with 1362 atoms

Minimization stats:
  Stopping criterion = linesearch alpha is zero
  Energy initial, next-to-last, final =
  Force two-norm initial, final = 80.2364 66.3752
  Force max component initial, final = 7.9258 7.34764
  Final line search alpha, max atom move = 1.45839e-12 1.07157e-11
  Iterations, force evaluations = 4 71

timestep        1
fix             pysimm_md all nvt temp 300 300 100
run             5000
PPPM initialization ...
  G vector (1/distance) = 0.0810617
  grid = 20 20 20
  stencil order = 5
  estimated absolute RMS force accuracy = 0.0346955
  estimated relative force accuracy = 0.000104484
  3d grid and FFT values/proc = 2250 800
Step Temp E_pair E_mol TotEng Press
4     651.4291    440.17262    2121.4295    5204.3734    5.0596156
Loop time of 7.48224 on 16 procs for 5000 steps with 1362 atoms

unfix pysimm_md
write_dump all custom pysimm.dump.tmp id q x y z vx vy vz
quit

################################################################################
##################################    Init    ##################################
################################################################################
units           real
atom_style      full
pair_style      lj/cut/coul/long 12.0  12.0
kspace_style    pppm 1e-4
bond_style      harmonic
angle_style     harmonic
dihedral_style  fourier
improper_style  cvff
special_bonds   amber
pair_modify     mix arithmetic
read_data       temp.lmps
  orthogonal box = (-146.721 -146.721 -146.721) to (146.721 146.721 146.721)
  reading atoms ...
  1432 atoms
  reading velocities ...
  1432 velocities
  scanning bonds ...
  scanning angles ...
  scanning dihedrals ...
  scanning impropers ...
  reading bonds ...
  1572 bonds
  reading angles ...
  2727 angles
  reading dihedrals ...
  4178 dihedrals
  reading impropers ...
  464 impropers
################################################################################

min_style cg
minimize 1e-05 1e-05 10000 100000
PPPM initialization ...
  G vector (1/distance) = 0.0802039
  grid = 20 20 20
  stencil order = 5
  estimated absolute RMS force accuracy = 0.036048
  estimated relative force accuracy = 0.000108558
  3d grid and FFT values/proc = 2250 800
  update every 1 steps, delay 0 steps, check yes
Step Temp E_pair E_mol TotEng Press
0    924.24142    446.77593     2438.025    6827.1889    6.3938582
Loop time of 0.470985 on 16 procs for 39 steps with 1432 atoms

Minimization stats:
  Stopping criterion = linesearch alpha is zero
  Energy initial, next-to-last, final =
  Force two-norm initial, final = 83.7892 64.812
  Force max component initial, final = 9.31153 11.9632
  Final line search alpha, max atom move = 1.91853e-12 2.29517e-11
  Iterations, force evaluations = 39 146

timestep        1
fix             pysimm_md all nvt temp 300 300 100
run             5000
PPPM initialization ...
  G vector (1/distance) = 0.0802039
  grid = 20 20 20
  stencil order = 5
  estimated absolute RMS force accuracy = 0.036048
  estimated relative force accuracy = 0.000108558
  3d grid and FFT values/proc = 2250 800
Step Temp E_pair E_mol TotEng Press
39    924.24142    413.21075     2373.941    6729.5397    5.7820358
Loop time of 6.09744 on 16 procs for 5000 steps with 1432 atoms

unfix pysimm_md
write_dump all custom pysimm.dump.tmp id q x y z vx vy vz
quit

################################################################################
##################################    Init    ##################################
################################################################################
units           real
atom_style      full
pair_style      lj/cut/coul/long 12.0  12.0
kspace_style    pppm 1e-4
bond_style      harmonic
angle_style     harmonic
dihedral_style  fourier
improper_style  cvff
special_bonds   amber
pair_modify     mix arithmetic
read_data       temp.lmps
  orthogonal box = (-144.461 -144.461 -144.461) to (144.461 144.461 144.461)
  reading atoms ...
  1484 atoms
  reading velocities ...
  1484 velocities
  scanning bonds ...
  scanning angles ...
  scanning dihedrals ...
  scanning impropers ...
  reading bonds ...
  1627 bonds
  reading angles ...
  2832 angles
  reading dihedrals ...
  4316 dihedrals
  reading impropers ...
  472 impropers
################################################################################

min_style cg
minimize 1e-05 1e-05 10000 100000
PPPM initialization ...
  G vector (1/distance) = 0.0932512
  grid = 24 24 24
  stencil order = 5
  estimated absolute RMS force accuracy = 0.0269734
  estimated relative force accuracy = 8.12295e-05
  3d grid and FFT values/proc = 3179 1152
  update every 1 steps, delay 0 steps, check yes
Step Temp E_pair E_mol TotEng Press
0    981.43136     502.4137    2489.5689    7330.4404    7.2833825
Loop time of 0.639413 on 16 procs for 58 steps with 1484 atoms

Minimization stats:
  Stopping criterion = linesearch alpha is zero
  Energy initial, next-to-last, final =
  Force two-norm initial, final = 93.9661 62.0478
  Force max component initial, final = 11.8027 8.06376
  Final line search alpha, max atom move = 2.11218e-12 1.70321e-11
  Iterations, force evaluations = 58 175

timestep        1
fix             pysimm_md all nvt temp 300 300 100
run             5000
PPPM initialization ...
  G vector (1/distance) = 0.0932512
  grid = 24 24 24
  stencil order = 5
  estimated absolute RMS force accuracy = 0.0269734
  estimated relative force accuracy = 8.12295e-05
  3d grid and FFT values/proc = 3179 1152
Step Temp E_pair E_mol TotEng Press
58    981.43136    471.17358    2338.5402    7148.1716    7.6339716
Loop time of 7.00718 on 16 procs for 5000 steps with 1484 atoms

unfix pysimm_md
write_dump all custom pysimm.dump.tmp id q x y z vx vy vz
quit

################################################################################
##################################    Init    ##################################
################################################################################
units           real
atom_style      full
pair_style      lj/cut/coul/long 12.0  12.0
kspace_style    pppm 1e-4
bond_style      harmonic
angle_style     harmonic
dihedral_style  fourier
improper_style  cvff
special_bonds   amber
pair_modify     mix arithmetic
read_data       temp.lmps
  orthogonal box = (-150.533 -150.533 -150.533) to (150.533 150.533 150.533)
  reading atoms ...
  1536 atoms
  reading velocities ...
  1536 velocities
  scanning bonds ...
  scanning angles ...
  scanning dihedrals ...
  scanning impropers ...
  reading bonds ...
  1682 bonds
  reading angles ...
  2935 angles
  reading dihedrals ...
  4450 dihedrals
  reading impropers ...
  480 impropers
################################################################################

min_style cg
minimize 1e-05 1e-05 10000 100000
PPPM initialization ...
  G vector (1/distance) = 0.0904392
  grid = 24 24 24
  stencil order = 5
  estimated absolute RMS force accuracy = 0.0276564
  estimated relative force accuracy = 8.32865e-05
  3d grid and FFT values/proc = 3179 1152
  update every 1 steps, delay 0 steps, check yes
Step Temp E_pair E_mol TotEng Press
0    655.05084    495.47171    2477.2356    5969.9209    4.8633342
Loop time of 0.785727 on 16 procs for 57 steps with 1536 atoms

Minimization stats:
  Stopping criterion = linesearch alpha is zero
  Energy initial, next-to-last, final =
  Force two-norm initial, final = 107.08 54.6803
  Force max component initial, final = 13.2127 7.00934
  Final line search alpha, max atom move = 2.10785e-12 1.47746e-11
  Iterations, force evaluations = 57 186

timestep        1
fix             pysimm_md all nvt temp 300 300 100
run             5000
PPPM initialization ...
  G vector (1/distance) = 0.0904392
  grid = 24 24 24
  stencil order = 5
  estimated absolute RMS force accuracy = 0.0276564
  estimated relative force accuracy = 8.32865e-05
  3d grid and FFT values/proc = 3179 1152
Step Temp E_pair E_mol TotEng Press
57    655.05084    449.31277    2339.5196    5786.0459    4.9352422
Loop time of 10.3063 on 16 procs for 5000 steps with 1536 atoms

unfix pysimm_md
write_dump all custom pysimm.dump.tmp id q x y z vx vy vz
quit

################################################################################
##################################    Init    ##################################
################################################################################
units           real
atom_style      full
pair_style      lj/cut/coul/long 12.0  12.0
kspace_style    pppm 1e-4
bond_style      harmonic
angle_style     harmonic
dihedral_style  fourier
improper_style  cvff
special_bonds   amber
pair_modify     mix arithmetic
read_data       temp.lmps
  orthogonal box = (-152.369 -152.369 -152.369) to (152.369 152.369 152.369)
  reading atoms ...
  1604 atoms
  reading velocities ...
  1604 velocities
  scanning bonds ...
  scanning angles ...
  scanning dihedrals ...
  scanning impropers ...
  reading bonds ...
  1761 bonds
  reading angles ...
  3055 angles
  reading dihedrals ...
  4682 dihedrals
  reading impropers ...
  520 impropers
################################################################################

min_style cg
minimize 1e-05 1e-05 10000 100000
PPPM initialization ...
  G vector (1/distance) = 0.0896206
  grid = 24 24 24
  stencil order = 5
  estimated absolute RMS force accuracy = 0.0286372
  estimated relative force accuracy = 8.624e-05
  3d grid and FFT values/proc = 3179 1152
  update every 1 steps, delay 0 steps, check yes
Step Temp E_pair E_mol TotEng Press
0    1999.6134    539.04933    2768.3776    12862.057    14.044345
Loop time of 0.618865 on 16 procs for 50 steps with 1604 atoms

Minimization stats:
  Stopping criterion = linesearch alpha is zero
  Energy initial, next-to-last, final =
  Force two-norm initial, final = 88.3689 56.067
  Force max component initial, final = 12.1964 6.091
  Final line search alpha, max atom move = 3.62082e-12 2.20544e-11
  Iterations, force evaluations = 50 157

timestep        1
fix             pysimm_md all nvt temp 300 300 100
run             5000
PPPM initialization ...
  G vector (1/distance) = 0.0896206
  grid = 24 24 24
  stencil order = 5
  estimated absolute RMS force accuracy = 0.0286372
  estimated relative force accuracy = 8.624e-05
  3d grid and FFT values/proc = 3179 1152
Step Temp E_pair E_mol TotEng Press
50    1999.6134    507.50965    2676.2052    12738.345    14.417105
Loop time of 8.8381 on 16 procs for 5000 steps with 1604 atoms

unfix pysimm_md
write_dump all custom pysimm.dump.tmp id q x y z vx vy vz
quit

################################################################################
##################################    Init    ##################################
################################################################################
units           real
atom_style      full
pair_style      lj/cut/coul/long 12.0  12.0
kspace_style    pppm 1e-4
bond_style      harmonic
angle_style     harmonic
dihedral_style  fourier
improper_style  cvff
special_bonds   amber
pair_modify     mix arithmetic
read_data       temp.lmps
  orthogonal box = (-154.162 -154.162 -154.162) to (154.162 154.162 154.162)
  reading atoms ...
  1658 atoms
  reading velocities ...
  1658 velocities
  scanning bonds ...
  scanning angles ...
  scanning dihedrals ...
  scanning impropers ...
  reading bonds ...
  1819 bonds
  reading angles ...
  3161 angles
  reading dihedrals ...
  4830 dihedrals
  reading impropers ...
  532 impropers
################################################################################

min_style cg
minimize 1e-05 1e-05 10000 100000
PPPM initialization ...
  G vector (1/distance) = 0.0888348
  grid = 24 24 24
  stencil order = 5
  estimated absolute RMS force accuracy = 0.0291087
  estimated relative force accuracy = 8.766e-05
  3d grid and FFT values/proc = 3179 1152
  update every 1 steps, delay 0 steps, check yes
Step Temp E_pair E_mol TotEng Press
0    714.92922    556.71761    2792.4345    6880.3321    6.0863413
Loop time of 0.371792 on 16 procs for 7 steps with 1658 atoms

Minimization stats:
  Stopping criterion = linesearch alpha is zero
  Energy initial, next-to-last, final =
  Force two-norm initial, final = 98.185 65.7877
  Force max component initial, final = 10.3527 8.53625
  Final line search alpha, max atom move = 1.464e-12 1.2497e-11
  Iterations, force evaluations = 7 75

timestep        1
fix             pysimm_md all nvt temp 300 300 100
run             5000
PPPM initialization ...
  G vector (1/distance) = 0.0888348
  grid = 24 24 24
  stencil order = 5
  estimated absolute RMS force accuracy = 0.0291087
  estimated relative force accuracy = 8.766e-05
  3d grid and FFT values/proc = 3179 1152
Step Temp E_pair E_mol TotEng Press
7    714.92922    551.91073    2783.8321    6866.9229    6.1109514
Loop time of 11.4236 on 16 procs for 5000 steps with 1658 atoms

unfix pysimm_md
write_dump all custom pysimm.dump.tmp id q x y z vx vy vz
quit

################################################################################
##################################    Init    ##################################
################################################################################
units           real
atom_style      full
pair_style      lj/cut/coul/long 12.0  12.0
kspace_style    pppm 1e-4
bond_style      harmonic
angle_style     harmonic
dihedral_style  fourier
improper_style  cvff
special_bonds   amber
pair_modify     mix arithmetic
read_data       temp.lmps
  orthogonal box = (-155.914 -155.914 -155.914) to (155.914 155.914 155.914)
  reading atoms ...
  1702 atoms
  reading velocities ...
  1702 velocities
  scanning bonds ...
  scanning angles ...
  scanning dihedrals ...
  scanning impropers ...
  reading bonds ...
  1862 bonds
  reading angles ...
  3257 angles
  reading dihedrals ...
  4918 dihedrals
  reading impropers ...
  524 impropers
################################################################################

min_style cg
minimize 1e-05 1e-05 10000 100000
PPPM initialization ...
  G vector (1/distance) = 0.0880795
  grid = 24 24 24
  stencil order = 5
  estimated absolute RMS force accuracy = 0.0292273
  estimated relative force accuracy = 8.80173e-05
  3d grid and FFT values/proc = 3179 1152
  update every 1 steps, delay 0 steps, check yes
Loop time of 1.33229 on 16 procs for 133 steps with 1702 atoms

Minimization stats:
  Stopping criterion = linesearch alpha is zero
  Energy initial, next-to-last, final =
  Force two-norm initial, final = 202.387 85.0805
  Force max component initial, final = 42.5504 31.048
  Final line search alpha, max atom move = 9.26739e-13 2.87734e-11
  Iterations, force evaluations = 133 324

timestep        1
fix             pysimm_md all nvt temp 300 300 100
run             5000
PPPM initialization ...
  G vector (1/distance) = 0.0880795
  grid = 24 24 24
  stencil order = 5
  estimated absolute RMS force accuracy = 0.0292273
  estimated relative force accuracy = 8.80173e-05
  3d grid and FFT values/proc = 3179 1152
Loop time of 9.40095 on 16 procs for 5000 steps with 1702 atoms

unfix pysimm_md
write_dump all custom pysimm.dump.tmp id q x y z vx vy vz
quit

################################################################################
##################################    Init    ##################################
################################################################################
units           real
atom_style      full
pair_style      lj/cut/coul/long 12.0  12.0
kspace_style    pppm 1e-4
bond_style      harmonic
angle_style     harmonic
dihedral_style  fourier
improper_style  cvff
special_bonds   amber
pair_modify     mix arithmetic
read_data       temp.lmps
  orthogonal box = (-157.627 -157.627 -157.627) to (157.627 157.627 157.627)
  reading atoms ...
  1770 atoms
  reading velocities ...
  1770 velocities
  scanning bonds ...
  scanning angles ...
  scanning dihedrals ...
  scanning impropers ...
  reading bonds ...
  1941 bonds
  reading angles ...
  3377 angles
  reading dihedrals ...
  5150 dihedrals
  reading impropers ...
  564 impropers
################################################################################

min_style cg
minimize 1e-05 1e-05 10000 100000
PPPM initialization ...
  G vector (1/distance) = 0.0873526
  grid = 24 24 24
  stencil order = 5
  estimated absolute RMS force accuracy = 0.030146
  estimated relative force accuracy = 9.07837e-05
  3d grid and FFT values/proc = 3179 1152
  update every 1 steps, delay 0 steps, check yes
Loop time of 0.259745 on 16 procs for 12 steps with 1770 atoms

Minimization stats:
  Stopping criterion = linesearch alpha is zero
  Energy initial, next-to-last, final =
  Force two-norm initial, final = 92.2701 58.0239
  Force max component initial, final = 10.9085 6.02692
  Final line search alpha, max atom move = 2.55513e-12 1.53996e-11
  Iterations, force evaluations = 12 83

timestep        1
fix             pysimm_md all nvt temp 300 300 100
run             5000
PPPM initialization ...
  G vector (1/distance) = 0.0873526
  grid = 24 24 24
  stencil order = 5
  estimated absolute RMS force accuracy = 0.030146
  estimated relative force accuracy = 9.07837e-05
  3d grid and FFT values/proc = 3179 1152
Loop time of 7.13824 on 16 procs for 5000 steps with 1770 atoms

unfix pysimm_md
write_dump all custom pysimm.dump.tmp id q x y z vx vy vz
quit

################################################################################
##################################    Init    ##################################
################################################################################
units           real
atom_style      full
pair_style      lj/cut/coul/long 12.0  12.0
kspace_style    pppm 1e-4
bond_style      harmonic
angle_style     harmonic
dihedral_style  fourier
improper_style  cvff
special_bonds   amber
pair_modify     mix arithmetic
read_data       temp.lmps
  orthogonal box = (-159.304 -159.304 -159.304) to (159.304 159.304 159.304)
  reading atoms ...
  1822 atoms
  reading velocities ...
  1822 velocities
  scanning bonds ...
  scanning angles ...
  scanning dihedrals ...
  scanning impropers ...
  reading bonds ...
  1996 bonds
  reading angles ...
  3481 angles
  reading dihedrals ...
  5286 dihedrals
  reading impropers ...
  572 impropers
################################################################################

min_style cg
minimize 1e-05 1e-05 10000 100000
PPPM initialization ...
  G vector (1/distance) = 0.0866522
  grid = 24 24 24
  stencil order = 5
  estimated absolute RMS force accuracy = 0.0305118
  estimated relative force accuracy = 9.18854e-05
  3d grid and FFT values/proc = 3179 1152
  update every 1 steps, delay 0 steps, check yes
Loop time of 0.48613 on 16 procs for 30 steps with 1822 atoms

Minimization stats:
  Stopping criterion = linesearch alpha is zero
  Energy initial, next-to-last, final =
  Force two-norm initial, final = 98.5138 67.4534
  Force max component initial, final = 11.0357 7.74155
  Final line search alpha, max atom move = 1.8668e-12 1.4452e-11
  Iterations, force evaluations = 30 119

timestep        1
fix             pysimm_md all nvt temp 300 300 100
run             5000
PPPM initialization ...
  G vector (1/distance) = 0.0866522
  grid = 24 24 24
  stencil order = 5
  estimated absolute RMS force accuracy = 0.0305118
  estimated relative force accuracy = 9.18854e-05
  3d grid and FFT values/proc = 3179 1152
Loop time of 10.6389 on 16 procs for 5000 steps with 1822 atoms

unfix pysimm_md
write_dump all custom pysimm.dump.tmp id q x y z vx vy vz
quit

################################################################################
##################################    Init    ##################################
################################################################################
units           real
atom_style      full
pair_style      lj/cut/coul/long 12.0  12.0
kspace_style    pppm 1e-4
bond_style      harmonic
angle_style     harmonic
dihedral_style  fourier
improper_style  cvff
special_bonds   amber
pair_modify     mix arithmetic
read_data       temp.lmps
  orthogonal box = (-160.947 -160.947 -160.947) to (160.947 160.947 160.947)
  reading atoms ...
  1880 atoms
  reading velocities ...
  1880 velocities
  scanning bonds ...
  scanning angles ...
  scanning dihedrals ...
  scanning impropers ...
  reading bonds ...
  2060 bonds
  reading angles ...
  3591 angles
  reading dihedrals ...
  5458 dihedrals
  reading impropers ...
  592 impropers
################################################################################

min_style cg
minimize 1e-05 1e-05 10000 100000
PPPM initialization ...
  G vector (1/distance) = 0.0859766
  grid = 24 24 24
  stencil order = 5
  estimated absolute RMS force accuracy = 0.0310631
  estimated relative force accuracy = 9.35456e-05
  3d grid and FFT values/proc = 3179 1152
  update every 1 steps, delay 0 steps, check yes
Loop time of 0.962437 on 16 procs for 76 steps with 1880 atoms

Minimization stats:
  Stopping criterion = linesearch alpha is zero
  Energy initial, next-to-last, final =
  Force two-norm initial, final = 94.5582 55.2233
  Force max component initial, final = 11.228 8.27019
  Final line search alpha, max atom move = 2.16644e-12 1.79168e-11
  Iterations, force evaluations = 76 213

timestep        1
fix             pysimm_md all nvt temp 300 300 100
run             5000
PPPM initialization ...
  G vector (1/distance) = 0.0859766
  grid = 24 24 24
  stencil order = 5
  estimated absolute RMS force accuracy = 0.0310631
  estimated relative force accuracy = 9.35456e-05
  3d grid and FFT values/proc = 3179 1152
Loop time of 11.2024 on 16 procs for 5000 steps with 1880 atoms

unfix pysimm_md
write_dump all custom pysimm.dump.tmp id q x y z vx vy vz
quit

################################################################################
##################################    Init    ##################################
################################################################################
units           real
atom_style      full
pair_style      lj/cut/coul/long 12.0  12.0
kspace_style    pppm 1e-4
bond_style      harmonic
angle_style     harmonic
dihedral_style  fourier
improper_style  cvff
special_bonds   amber
pair_modify     mix arithmetic
read_data       temp.lmps
  orthogonal box = (-162.556 -162.556 -162.556) to (162.556 162.556 162.556)
  reading atoms ...
  1936 atoms
  reading velocities ...
  1936 velocities
  scanning bonds ...
  scanning angles ...
  scanning dihedrals ...
  scanning impropers ...
  reading bonds ...
  2121 bonds
  reading angles ...
  3699 angles
  reading dihedrals ...
  5618 dihedrals
  reading impropers ...
  608 impropers
################################################################################

min_style cg
minimize 1e-05 1e-05 10000 100000
PPPM initialization ...
  G vector (1/distance) = 0.0853242
  grid = 24 24 24
  stencil order = 5
  estimated absolute RMS force accuracy = 0.0315359
  estimated relative force accuracy = 9.49694e-05
  3d grid and FFT values/proc = 3179 1152
  update every 1 steps, delay 0 steps, check yes
Loop time of 0.575042 on 16 procs for 54 steps with 1936 atoms

Minimization stats:
  Stopping criterion = linesearch alpha is zero
  Energy initial, next-to-last, final =
  Force two-norm initial, final = 109.223 68.0357
  Force max component initial, final = 13.2376 12.6725
  Final line search alpha, max atom move = 1.91863e-12 2.43138e-11
  Iterations, force evaluations = 54 166

timestep        1
fix             pysimm_md all nvt temp 300 300 100
run             5000
PPPM initialization ...
  G vector (1/distance) = 0.0853242
  grid = 24 24 24
  stencil order = 5
  estimated absolute RMS force accuracy = 0.0315359
  estimated relative force accuracy = 9.49694e-05
  3d grid and FFT values/proc = 3179 1152
Loop time of 7.03466 on 16 procs for 5000 steps with 1936 atoms

unfix pysimm_md
write_dump all custom pysimm.dump.tmp id q x y z vx vy vz
quit

################################################################################
##################################    Init    ##################################
################################################################################
units           real
atom_style      full
pair_style      lj/cut/coul/long 12.0  12.0
kspace_style    pppm 1e-4
bond_style      harmonic
angle_style     harmonic
dihedral_style  fourier
improper_style  cvff
special_bonds   amber
pair_modify     mix arithmetic
read_data       temp.lmps
  orthogonal box = (-159.508 -159.508 -159.508) to (159.508 159.508 159.508)
  reading atoms ...
  1996 atoms
  reading velocities ...
  1996 velocities
  scanning bonds ...
  scanning angles ...
  scanning dihedrals ...
  scanning impropers ...
  reading bonds ...
  2188 bonds
  reading angles ...
  3812 angles
  reading dihedrals ...
  5804 dihedrals
  reading impropers ...
  632 impropers
################################################################################

min_style cg
minimize 1e-05 1e-05 10000 100000
PPPM initialization ...
  G vector (1/distance) = 0.0865677
  grid = 24 24 24
  stencil order = 5
  estimated absolute RMS force accuracy = 0.0320164
  estimated relative force accuracy = 9.64164e-05
  3d grid and FFT values/proc = 3179 1152
  update every 1 steps, delay 0 steps, check yes
Loop time of 0.419838 on 16 procs for 9 steps with 1996 atoms

Minimization stats:
  Stopping criterion = linesearch alpha is zero
  Energy initial, next-to-last, final =
  Force two-norm initial, final = 92.6174 67.769
  Force max component initial, final = 12.0929 8.82911
  Final line search alpha, max atom move = 1.99352e-12 1.7601e-11
  Iterations, force evaluations = 9 79

timestep        1
fix             pysimm_md all nvt temp 300 300 100
run             5000
PPPM initialization ...
  G vector (1/distance) = 0.0865677
  grid = 24 24 24
  stencil order = 5
  estimated absolute RMS force accuracy = 0.0320164
  estimated relative force accuracy = 9.64164e-05
  3d grid and FFT values/proc = 3179 1152
Loop time of 11.6638 on 16 procs for 5000 steps with 1996 atoms

unfix pysimm_md
write_dump all custom pysimm.dump.tmp id q x y z vx vy vz
quit

################################################################################
##################################    Init    ##################################
################################################################################
units           real
atom_style      full
pair_style      lj/cut/coul/long 12.0  12.0
kspace_style    pppm 1e-4
bond_style      harmonic
angle_style     harmonic
dihedral_style  fourier
improper_style  cvff
special_bonds   amber
pair_modify     mix arithmetic
read_data       temp.lmps
  orthogonal box = (-165.683 -165.683 -165.683) to (165.683 165.683 165.683)
  reading atoms ...
  2060 atoms
  reading velocities ...
  2060 velocities
  scanning bonds ...
  scanning angles ...
  scanning dihedrals ...
  scanning impropers ...
  reading bonds ...
  2261 bonds
  reading angles ...
  3927 angles
  reading dihedrals ...
  6010 dihedrals
  reading impropers ...
  664 impropers
################################################################################

min_style cg
minimize 1e-05 1e-05 10000 100000
PPPM initialization ...
  G vector (1/distance) = 0.0840837
  grid = 24 24 24
  stencil order = 5
  estimated absolute RMS force accuracy = 0.03282
  estimated relative force accuracy = 9.88365e-05
  3d grid and FFT values/proc = 3179 1152
  update every 1 steps, delay 0 steps, check yes
Loop time of 0.469958 on 16 procs for 21 steps with 2060 atoms

Minimization stats:
  Stopping criterion = linesearch alpha is zero
  Energy initial, next-to-last, final =
  Force two-norm initial, final = 99.2049 65.3293
  Force max component initial, final = 20.0787 8.51677
  Final line search alpha, max atom move = 1.90287e-12 1.62063e-11
  Iterations, force evaluations = 21 101

timestep        1
fix             pysimm_md all nvt temp 300 300 100
run             5000
PPPM initialization ...
  G vector (1/distance) = 0.0840837
  grid = 24 24 24
  stencil order = 5
  estimated absolute RMS force accuracy = 0.03282
  estimated relative force accuracy = 9.88365e-05
  3d grid and FFT values/proc = 3179 1152
Loop time of 9.72542 on 16 procs for 5000 steps with 2060 atoms

unfix pysimm_md
write_dump all custom pysimm.dump.tmp id q x y z vx vy vz
quit

################################################################################
##################################    Init    ##################################
################################################################################
units           real
atom_style      full
pair_style      lj/cut/coul/long 12.0  12.0
kspace_style    pppm 1e-4
bond_style      harmonic
angle_style     harmonic
dihedral_style  fourier
improper_style  cvff
special_bonds   amber
pair_modify     mix arithmetic
read_data       temp.lmps
  orthogonal box = (-167.203 -167.203 -167.203) to (167.203 167.203 167.203)
  reading atoms ...
  2118 atoms
  reading velocities ...
  2118 velocities
  scanning bonds ...
  scanning angles ...
  scanning dihedrals ...
  scanning impropers ...
  reading bonds ...
  2325 bonds
  reading angles ...
  4037 angles
  reading dihedrals ...
  6182 dihedrals
  reading impropers ...
  684 impropers
################################################################################

min_style cg
minimize 1e-05 1e-05 10000 100000
PPPM initialization ...
  G vector (1/distance) = 0.0834931
  grid = 24 24 24
  stencil order = 5
  estimated absolute RMS force accuracy = 0.033315
  estimated relative force accuracy = 0.000100327
  3d grid and FFT values/proc = 3179 1152
  update every 1 steps, delay 0 steps, check yes
Loop time of 0.731106 on 16 procs for 44 steps with 2118 atoms

Minimization stats:
  Stopping criterion = linesearch alpha is zero
  Energy initial, next-to-last, final =
  Force two-norm initial, final = 110.507 83.8789
  Force max component initial, final = 11.2127 8.34273
  Final line search alpha, max atom move = 9.69816e-13 8.09091e-12
  Iterations, force evaluations = 44 149

timestep        1
fix             pysimm_md all nvt temp 300 300 100
run             5000
PPPM initialization ...
  G vector (1/distance) = 0.0834931
  grid = 24 24 24
  stencil order = 5
  estimated absolute RMS force accuracy = 0.033315
  estimated relative force accuracy = 0.000100327
  3d grid and FFT values/proc = 3179 1152
Loop time of 11.6264 on 16 procs for 5000 steps with 2118 atoms

unfix pysimm_md
write_dump all custom pysimm.dump.tmp id q x y z vx vy vz
quit

################################################################################
##################################    Init    ##################################
################################################################################
units           real
atom_style      full
pair_style      lj/cut/coul/long 12.0  12.0
kspace_style    pppm 1e-4
bond_style      harmonic
angle_style     harmonic
dihedral_style  fourier
improper_style  cvff
special_bonds   amber
pair_modify     mix arithmetic
read_data       temp.lmps
  orthogonal box = (-168.696 -168.696 -168.696) to (168.696 168.696 168.696)
  reading atoms ...
  2170 atoms
  reading velocities ...
  2170 velocities
  scanning bonds ...
  scanning angles ...
  scanning dihedrals ...
  scanning impropers ...
  reading bonds ...
  2380 bonds
  reading angles ...
  4141 angles
  reading dihedrals ...
  6318 dihedrals
  reading impropers ...
  692 impropers
################################################################################

min_style cg
minimize 1e-05 1e-05 10000 100000
PPPM initialization ...
  G vector (1/distance) = 0.0829207
  grid = 24 24 24
  stencil order = 5
  estimated absolute RMS force accuracy = 0.0336162
  estimated relative force accuracy = 0.000101234
  3d grid and FFT values/proc = 3179 1152
  update every 1 steps, delay 0 steps, check yes
Loop time of 0.637394 on 16 procs for 41 steps with 2170 atoms

Minimization stats:
  Stopping criterion = linesearch alpha is zero
  Energy initial, next-to-last, final =
  Force two-norm initial, final = 113.466 67.1763
  Force max component initial, final = 20.997 7.65719
  Final line search alpha, max atom move = 2.19129e-12 1.67791e-11
  Iterations, force evaluations = 41 141

timestep        1
fix             pysimm_md all nvt temp 300 300 100
run             5000
PPPM initialization ...
  G vector (1/distance) = 0.0829207
  grid = 24 24 24
  stencil order = 5
  estimated absolute RMS force accuracy = 0.0336162
  estimated relative force accuracy = 0.000101234
  3d grid and FFT values/proc = 3179 1152
Loop time of 9.31478 on 16 procs for 5000 steps with 2170 atoms

unfix pysimm_md
write_dump all custom pysimm.dump.tmp id q x y z vx vy vz
quit

################################################################################
##################################    Init    ##################################
################################################################################
units           real
atom_style      full
pair_style      lj/cut/coul/long 12.0  12.0
kspace_style    pppm 1e-4
bond_style      harmonic
angle_style     harmonic
dihedral_style  fourier
improper_style  cvff
special_bonds   amber
pair_modify     mix arithmetic
read_data       temp.lmps
  orthogonal box = (-170.163 -170.163 -170.163) to (170.163 170.163 170.163)
  reading atoms ...
  2218 atoms
  reading velocities ...
  2218 velocities
  scanning bonds ...
  scanning angles ...
  scanning dihedrals ...
  scanning impropers ...
  reading bonds ...
  2429 bonds
  reading angles ...
  4241 angles
  reading dihedrals ...
  6430 dihedrals
  reading impropers ...
  692 impropers
################################################################################

min_style cg
minimize 1e-05 1e-05 10000 100000
PPPM initialization ...
  G vector (1/distance) = 0.0823656
  grid = 24 24 24
  stencil order = 5
  estimated absolute RMS force accuracy = 0.03379
  estimated relative force accuracy = 0.000101758
  3d grid and FFT values/proc = 3179 1152
  update every 1 steps, delay 0 steps, check yes
Loop time of 1.14012 on 16 procs for 83 steps with 2218 atoms

Minimization stats:
  Stopping criterion = linesearch alpha is zero
  Energy initial, next-to-last, final =
  Force two-norm initial, final = 106.142 62.9518
  Force max component initial, final = 13.1081 9.1563
  Final line search alpha, max atom move = 2.05707e-12 1.88351e-11
  Iterations, force evaluations = 83 225

timestep        1
fix             pysimm_md all nvt temp 300 300 100
run             5000
PPPM initialization ...
  G vector (1/distance) = 0.0823656
  grid = 24 24 24
  stencil order = 5
  estimated absolute RMS force accuracy = 0.03379
  estimated relative force accuracy = 0.000101758
  3d grid and FFT values/proc = 3179 1152
Loop time of 13.8527 on 16 procs for 5000 steps with 2218 atoms

unfix pysimm_md
write_dump all custom pysimm.dump.tmp id q x y z vx vy vz
quit

################################################################################
##################################    Init    ##################################
################################################################################
units           real
atom_style      full
pair_style      lj/cut/coul/long 12.0  12.0
kspace_style    pppm 1e-4
bond_style      harmonic
angle_style     harmonic
dihedral_style  fourier
improper_style  cvff
special_bonds   amber
pair_modify     mix arithmetic
read_data       temp.lmps
  orthogonal box = (-171.605 -171.605 -171.605) to (171.605 171.605 171.605)
  reading atoms ...
  2276 atoms
  reading velocities ...
  2276 velocities
  scanning bonds ...
  scanning angles ...
  scanning dihedrals ...
  scanning impropers ...
  reading bonds ...
  2493 bonds
  reading angles ...
  4351 angles
  reading dihedrals ...
  6602 dihedrals
  reading impropers ...
  712 impropers
################################################################################

min_style cg
minimize 1e-05 1e-05 10000 100000
PPPM initialization ...
  G vector (1/distance) = 0.0818268
  grid = 24 24 24
  stencil order = 5
  estimated absolute RMS force accuracy = 0.0342567
  estimated relative force accuracy = 0.000103163
  3d grid and FFT values/proc = 3179 1152
  update every 1 steps, delay 0 steps, check yes
Loop time of 0.5358 on 16 procs for 41 steps with 2276 atoms

Minimization stats:
  Stopping criterion = linesearch alpha is zero
  Energy initial, next-to-last, final =
  Force two-norm initial, final = 125.912 71.3888
  Force max component initial, final = 18.4068 7.10619
  Final line search alpha, max atom move = 2.27997e-12 1.62019e-11
  Iterations, force evaluations = 41 153

timestep        1
fix             pysimm_md all nvt temp 300 300 100
run             5000
PPPM initialization ...
  G vector (1/distance) = 0.0818268
  grid = 24 24 24
  stencil order = 5
  estimated absolute RMS force accuracy = 0.0342567
  estimated relative force accuracy = 0.000103163
  3d grid and FFT values/proc = 3179 1152
Loop time of 9.66826 on 16 procs for 5000 steps with 2276 atoms

unfix pysimm_md
write_dump all custom pysimm.dump.tmp id q x y z vx vy vz
quit

################################################################################
##################################    Init    ##################################
################################################################################
units           real
atom_style      full
pair_style      lj/cut/coul/long 12.0  12.0
kspace_style    pppm 1e-4
bond_style      harmonic
angle_style     harmonic
dihedral_style  fourier
improper_style  cvff
special_bonds   amber
pair_modify     mix arithmetic
read_data       temp.lmps
  orthogonal box = (-173.024 -173.024 -173.024) to (173.024 173.024 173.024)
  reading atoms ...
  2336 atoms
  reading velocities ...
  2336 velocities
  scanning bonds ...
  scanning angles ...
  scanning dihedrals ...
  scanning impropers ...
  reading bonds ...
  2560 bonds
  reading angles ...
  4463 angles
  reading dihedrals ...
  6786 dihedrals
  reading impropers ...
  736 impropers
################################################################################

min_style cg
minimize 1e-05 1e-05 10000 100000
PPPM initialization ...
  G vector (1/distance) = 0.0813035
  grid = 24 24 24
  stencil order = 5
  estimated absolute RMS force accuracy = 0.0347712
  estimated relative force accuracy = 0.000104712
  3d grid and FFT values/proc = 3179 1152
  update every 1 steps, delay 0 steps, check yes
Loop time of 0.666585 on 16 procs for 55 steps with 2336 atoms

Minimization stats:
  Stopping criterion = linesearch alpha is zero
  Energy initial, next-to-last, final =
  Force two-norm initial, final = 110.676 76.8842
  Force max component initial, final = 13.2118 7.6849
  Final line search alpha, max atom move = 1.44671e-12 1.11178e-11
  Iterations, force evaluations = 55 169

timestep        1
fix             pysimm_md all nvt temp 300 300 100
run             5000
PPPM initialization ...
  G vector (1/distance) = 0.0813035
  grid = 24 24 24
  stencil order = 5
  estimated absolute RMS force accuracy = 0.0347712
  estimated relative force accuracy = 0.000104712
  3d grid and FFT values/proc = 3179 1152
Loop time of 8.16725 on 16 procs for 5000 steps with 2336 atoms

unfix pysimm_md
write_dump all custom pysimm.dump.tmp id q x y z vx vy vz
quit

################################################################################
##################################    Init    ##################################
################################################################################
units           real
atom_style      full
pair_style      lj/cut/coul/long 12.0  12.0
kspace_style    pppm 1e-4
bond_style      harmonic
angle_style     harmonic
dihedral_style  fourier
improper_style  cvff
special_bonds   amber
pair_modify     mix arithmetic
read_data       temp.lmps
  orthogonal box = (-169.503 -169.503 -169.503) to (169.503 169.503 169.503)
  reading atoms ...
  2384 atoms
  reading velocities ...
  2384 velocities
  scanning bonds ...
  scanning angles ...
  scanning dihedrals ...
  scanning impropers ...
  reading bonds ...
  2609 bonds
  reading angles ...
  4564 angles
  reading dihedrals ...
  6900 dihedrals
  reading impropers ...
  736 impropers
################################################################################

min_style cg
minimize 1e-05 1e-05 10000 100000
PPPM initialization ...
  G vector (1/distance) = 0.082616
  grid = 24 24 24
  stencil order = 5
  estimated absolute RMS force accuracy = 0.0349308
  estimated relative force accuracy = 0.000105193
  3d grid and FFT values/proc = 3179 1152
  update every 1 steps, delay 0 steps, check yes
Loop time of 1.01207 on 16 procs for 73 steps with 2384 atoms

Minimization stats:
  Stopping criterion = linesearch alpha is zero
  Energy initial, next-to-last, final =
  Force two-norm initial, final = 115.475 65.4111
  Force max component initial, final = 15.7462 7.38342
  Final line search alpha, max atom move = 1.61604e-12 1.19319e-11
  Iterations, force evaluations = 73 205

timestep        1
fix             pysimm_md all nvt temp 300 300 100
run             5000
PPPM initialization ...
  G vector (1/distance) = 0.082616
  grid = 24 24 24
  stencil order = 5
  estimated absolute RMS force accuracy = 0.0349308
  estimated relative force accuracy = 0.000105193
  3d grid and FFT values/proc = 3179 1152
Loop time of 11.8473 on 16 procs for 5000 steps with 2384 atoms

unfix pysimm_md
write_dump all custom pysimm.dump.tmp id q x y z vx vy vz
quit

################################################################################
##################################    Init    ##################################
################################################################################
units           real
atom_style      full
pair_style      lj/cut/coul/long 12.0  12.0
kspace_style    pppm 1e-4
bond_style      harmonic
angle_style     harmonic
dihedral_style  fourier
improper_style  cvff
special_bonds   amber
pair_modify     mix arithmetic
read_data       temp.lmps
  orthogonal box = (-170.837 -170.837 -170.837) to (170.837 170.837 170.837)
  reading atoms ...
  2452 atoms
  reading velocities ...
  2452 velocities
  scanning bonds ...
  scanning angles ...
  scanning dihedrals ...
  scanning impropers ...
  reading bonds ...
  2688 bonds
  reading angles ...
  4684 angles
  reading dihedrals ...
  7132 dihedrals
  reading impropers ...
  776 impropers
################################################################################

min_style cg
minimize 1e-05 1e-05 10000 100000
PPPM initialization ...
  G vector (1/distance) = 0.0821135
  grid = 24 24 24
  stencil order = 5
  estimated absolute RMS force accuracy = 0.0356696
  estimated relative force accuracy = 0.000107418
  3d grid and FFT values/proc = 3179 1152
  update every 1 steps, delay 0 steps, check yes
Loop time of 0.665646 on 16 procs for 4 steps with 2452 atoms

Minimization stats:
  Stopping criterion = linesearch alpha is zero
  Energy initial, next-to-last, final =
  Force two-norm initial, final = 211.387 108.001
  Force max component initial, final = 62.1686 38.4261
  Final line search alpha, max atom move = 6.50634e-13 2.50014e-11
  Iterations, force evaluations = 4 73

timestep        1
fix             pysimm_md all nvt temp 300 300 100
run             5000
PPPM initialization ...
  G vector (1/distance) = 0.0821135
  grid = 24 24 24
  stencil order = 5
  estimated absolute RMS force accuracy = 0.0356696
  estimated relative force accuracy = 0.000107418
  3d grid and FFT values/proc = 3179 1152
Loop time of 21.0366 on 16 procs for 5000 steps with 2452 atoms

unfix pysimm_md
write_dump all custom pysimm.dump.tmp id q x y z vx vy vz
quit

################################################################################
##################################    Init    ##################################
################################################################################
units           real
atom_style      full
pair_style      lj/cut/coul/long 12.0  12.0
kspace_style    pppm 1e-4
bond_style      harmonic
angle_style     harmonic
dihedral_style  fourier
improper_style  cvff
special_bonds   amber
pair_modify     mix arithmetic
read_data       temp.lmps
  orthogonal box = (-172.152 -172.152 -172.152) to (172.152 172.152 172.152)
  reading atoms ...
  2508 atoms
  reading velocities ...
  2508 velocities
  scanning bonds ...
  scanning angles ...
  scanning dihedrals ...
  scanning impropers ...
  reading bonds ...
  2749 bonds
  reading angles ...
  4792 angles
  reading dihedrals ...
  7292 dihedrals
  reading impropers ...
  792 impropers
################################################################################

min_style cg
minimize 1e-05 1e-05 10000 100000
PPPM initialization ...
  G vector (1/distance) = 0.0816249
  grid = 24 24 24
  stencil order = 5
  estimated absolute RMS force accuracy = 0.0360535
  estimated relative force accuracy = 0.000108574
  3d grid and FFT values/proc = 3179 1152
  update every 1 steps, delay 0 steps, check yes
Loop time of 0.385206 on 16 procs for 21 steps with 2508 atoms

Minimization stats:
  Stopping criterion = linesearch alpha is zero
  Energy initial, next-to-last, final =
  Force two-norm initial, final = 97.3604 74.2567
  Force max component initial, final = 11.0221 7.78901
  Final line search alpha, max atom move = 1.3268e-12 1.03344e-11
  Iterations, force evaluations = 21 103

timestep        1
fix             pysimm_md all nvt temp 300 300 100
run             5000
PPPM initialization ...
  G vector (1/distance) = 0.0816249
  grid = 24 24 24
  stencil order = 5
  estimated absolute RMS force accuracy = 0.0360535
  estimated relative force accuracy = 0.000108574
  3d grid and FFT values/proc = 3179 1152
Loop time of 8.10777 on 16 procs for 5000 steps with 2508 atoms

unfix pysimm_md
write_dump all custom pysimm.dump.tmp id q x y z vx vy vz
quit

################################################################################
##################################    Init    ##################################
################################################################################
units           real
atom_style      full
pair_style      lj/cut/coul/long 12.0  12.0
kspace_style    pppm 1e-4
bond_style      harmonic
angle_style     harmonic
dihedral_style  fourier
improper_style  cvff
special_bonds   amber
pair_modify     mix arithmetic
read_data       temp.lmps
  orthogonal box = (-173.446 -173.446 -173.446) to (173.446 173.446 173.446)
  reading atoms ...
  2564 atoms
  reading velocities ...
  2564 velocities
  scanning bonds ...
  scanning angles ...
  scanning dihedrals ...
  scanning impropers ...
  reading bonds ...
  2810 bonds
  reading angles ...
  4900 angles
  reading dihedrals ...
  7452 dihedrals
  reading impropers ...
  808 impropers
################################################################################

min_style cg
minimize 1e-05 1e-05 10000 100000
PPPM initialization ...
  G vector (1/distance) = 0.0837641
  grid = 25 25 25
  stencil order = 5
  estimated absolute RMS force accuracy = 0.03424
  estimated relative force accuracy = 0.000103113
  3d grid and FFT values/proc = 3888 1250
  update every 1 steps, delay 0 steps, check yes
Loop time of 1.16291 on 16 procs for 72 steps with 2564 atoms

Minimization stats:
  Stopping criterion = linesearch alpha is zero
  Energy initial, next-to-last, final =
  Force two-norm initial, final = 184.541 58.8248
  Force max component initial, final = 52.2002 25.2086
  Final line search alpha, max atom move = 4.31371e-12 1.08743e-10
  Iterations, force evaluations = 72 209

timestep        1
fix             pysimm_md all nvt temp 300 300 100
run             5000
PPPM initialization ...
  G vector (1/distance) = 0.0837641
  grid = 25 25 25
  stencil order = 5
  estimated absolute RMS force accuracy = 0.03424
  estimated relative force accuracy = 0.000103113
  3d grid and FFT values/proc = 3888 1250
Loop time of 11.9976 on 16 procs for 5000 steps with 2564 atoms

unfix pysimm_md
write_dump all custom pysimm.dump.tmp id q x y z vx vy vz
quit

################################################################################
##################################    Init    ##################################
################################################################################
units           real
atom_style      full
pair_style      lj/cut/coul/long 12.0  12.0
kspace_style    pppm 1e-4
bond_style      harmonic
angle_style     harmonic
dihedral_style  fourier
improper_style  cvff
special_bonds   amber
pair_modify     mix arithmetic
read_data       temp.lmps
  orthogonal box = (-174.721 -174.721 -174.721) to (174.721 174.721 174.721)
  reading atoms ...
  2610 atoms
  reading velocities ...
  2610 velocities
  scanning bonds ...
  scanning angles ...
  scanning dihedrals ...
  scanning impropers ...
  reading bonds ...
  2856 bonds
  reading angles ...
  4998 angles
  reading dihedrals ...
  7552 dihedrals
  reading impropers ...
  804 impropers
################################################################################

min_style cg
minimize 1e-05 1e-05 10000 100000
PPPM initialization ...
  G vector (1/distance) = 0.0832915
  grid = 25 25 25
  stencil order = 5
  estimated absolute RMS force accuracy = 0.0343462
  estimated relative force accuracy = 0.000103433
  3d grid and FFT values/proc = 3888 1250
  update every 1 steps, delay 0 steps, check yes
Loop time of 0.588285 on 16 procs for 11 steps with 2610 atoms

Minimization stats:
  Stopping criterion = linesearch alpha is zero
  Energy initial, next-to-last, final =
  Force two-norm initial, final = 101.419 77.7196
  Force max component initial, final = 11.6157 9.38438
  Final line search alpha, max atom move = 1.99864e-12 1.8756e-11
  Iterations, force evaluations = 11 81

timestep        1
fix             pysimm_md all nvt temp 300 300 100
run             5000
PPPM initialization ...
  G vector (1/distance) = 0.0832915
  grid = 25 25 25
  stencil order = 5
  estimated absolute RMS force accuracy = 0.0343462
  estimated relative force accuracy = 0.000103433
  3d grid and FFT values/proc = 3888 1250
Loop time of 15.0681 on 16 procs for 5000 steps with 2610 atoms

unfix pysimm_md
write_dump all custom pysimm.dump.tmp id q x y z vx vy vz
quit

################################################################################
##################################    Init    ##################################
################################################################################
units           real
atom_style      full
pair_style      lj/cut/coul/long 12.0  12.0
kspace_style    pppm 1e-4
bond_style      harmonic
angle_style     harmonic
dihedral_style  fourier
improper_style  cvff
special_bonds   amber
pair_modify     mix arithmetic
read_data       temp.lmps
  orthogonal box = (-175.978 -175.978 -175.978) to (175.978 175.978 175.978)
  reading atoms ...
  2672 atoms
  reading velocities ...
  2672 velocities
  scanning bonds ...
  scanning angles ...
  scanning dihedrals ...
  scanning impropers ...
  reading bonds ...
  2926 bonds
  reading angles ...
  5112 angles
  reading dihedrals ...
  7748 dihedrals
  reading impropers ...
  832 impropers
################################################################################

min_style cg
minimize 1e-05 1e-05 10000 100000
PPPM initialization ...
  G vector (1/distance) = 0.0828296
  grid = 25 25 25
  stencil order = 5
  estimated absolute RMS force accuracy = 0.0348616
  estimated relative force accuracy = 0.000104985
  3d grid and FFT values/proc = 3888 1250
  update every 1 steps, delay 0 steps, check yes
Loop time of 0.998074 on 16 procs for 59 steps with 2672 atoms

Minimization stats:
  Stopping criterion = linesearch alpha is zero
  Energy initial, next-to-last, final =
  Force two-norm initial, final = 118.411 49.6782
  Force max component initial, final = 13.106 6.33315
  Final line search alpha, max atom move = 3.21385e-12 2.03538e-11
  Iterations, force evaluations = 59 211

timestep        1
fix             pysimm_md all nvt temp 300 300 100
run             5000
PPPM initialization ...
  G vector (1/distance) = 0.0828296
  grid = 25 25 25
  stencil order = 5
  estimated absolute RMS force accuracy = 0.0348616
  estimated relative force accuracy = 0.000104985
  3d grid and FFT values/proc = 3888 1250
Loop time of 11.7834 on 16 procs for 5000 steps with 2672 atoms

unfix pysimm_md
write_dump all custom pysimm.dump.tmp id q x y z vx vy vz
quit

################################################################################
##################################    Init    ##################################
################################################################################
units           real
atom_style      full
pair_style      lj/cut/coul/long 12.0  12.0
kspace_style    pppm 1e-4
bond_style      harmonic
angle_style     harmonic
dihedral_style  fourier
improper_style  cvff
special_bonds   amber
pair_modify     mix arithmetic
read_data       temp.lmps
  orthogonal box = (-182.358 -182.358 -182.358) to (182.358 182.358 182.358)
  reading atoms ...
  2740 atoms
  reading velocities ...
  2740 velocities
  scanning bonds ...
  scanning angles ...
  scanning dihedrals ...
  scanning impropers ...
  reading bonds ...
  3005 bonds
  reading angles ...
  5231 angles
  reading dihedrals ...
  7978 dihedrals
  reading impropers ...
  872 impropers
################################################################################

min_style cg
minimize 1e-05 1e-05 10000 100000
PPPM initialization ...
  G vector (1/distance) = 0.0805638
  grid = 25 25 25
  stencil order = 5
  estimated absolute RMS force accuracy = 0.0355115
  estimated relative force accuracy = 0.000106942
  3d grid and FFT values/proc = 3888 1250
  update every 1 steps, delay 0 steps, check yes
Loop time of 0.831956 on 16 procs for 11 steps with 2740 atoms

Minimization stats:
  Stopping criterion = linesearch alpha is zero
  Energy initial, next-to-last, final =
  Force two-norm initial, final = 101.396 76.2671
  Force max component initial, final = 12.7678 8.09398
  Final line search alpha, max atom move = 1.81172e-12 1.4664e-11
  Iterations, force evaluations = 11 83

timestep        1
fix             pysimm_md all nvt temp 300 300 100
run             5000
PPPM initialization ...
  G vector (1/distance) = 0.0805638
  grid = 25 25 25
  stencil order = 5
  estimated absolute RMS force accuracy = 0.0355115
  estimated relative force accuracy = 0.000106942
  3d grid and FFT values/proc = 3888 1250
Loop time of 21.1449 on 16 procs for 5000 steps with 2740 atoms

unfix pysimm_md
write_dump all custom pysimm.dump.tmp id q x y z vx vy vz
quit

################################################################################
##################################    Init    ##################################
################################################################################
units           real
atom_style      full
pair_style      lj/cut/coul/long 12.0  12.0
kspace_style    pppm 1e-4
bond_style      harmonic
angle_style     harmonic
dihedral_style  fourier
improper_style  cvff
special_bonds   amber
pair_modify     mix arithmetic
read_data       temp.lmps
  orthogonal box = (-183.616 -183.616 -183.616) to (183.616 183.616 183.616)
  reading atoms ...
  2780 atoms
  reading velocities ...
  2780 velocities
  scanning bonds ...
  scanning angles ...
  scanning dihedrals ...
  scanning impropers ...
  reading bonds ...
  3042 bonds
  reading angles ...
  5323 angles
  reading dihedrals ...
  8042 dihedrals
  reading impropers ...
  856 impropers
################################################################################

min_style cg
minimize 1e-05 1e-05 10000 100000
PPPM initialization ...
  G vector (1/distance) = 0.0801318
  grid = 25 25 25
  stencil order = 5
  estimated absolute RMS force accuracy = 0.0354394
  estimated relative force accuracy = 0.000106725
  3d grid and FFT values/proc = 3888 1250
  update every 1 steps, delay 0 steps, check yes
Loop time of 0.711166 on 16 procs for 32 steps with 2780 atoms

Minimization stats:
  Stopping criterion = linesearch alpha is zero
  Energy initial, next-to-last, final =
  Force two-norm initial, final = 100.9 73.9793
  Force max component initial, final = 11.234 7.50327
  Final line search alpha, max atom move = 1.82721e-12 1.37101e-11
  Iterations, force evaluations = 32 123

timestep        1
fix             pysimm_md all nvt temp 300 300 100
run             5000
PPPM initialization ...
  G vector (1/distance) = 0.0801318
  grid = 25 25 25
  stencil order = 5
  estimated absolute RMS force accuracy = 0.0354394
  estimated relative force accuracy = 0.000106725
  3d grid and FFT values/proc = 3888 1250
Loop time of 18.4076 on 16 procs for 5000 steps with 2780 atoms

unfix pysimm_md
write_dump all custom pysimm.dump.tmp id q x y z vx vy vz
quit

################################################################################
##################################    Init    ##################################
################################################################################
units           real
atom_style      full
pair_style      lj/cut/coul/long 12.0  12.0
kspace_style    pppm 1e-4
bond_style      harmonic
angle_style     harmonic
dihedral_style  fourier
improper_style  cvff
special_bonds   amber
pair_modify     mix arithmetic
read_data       temp.lmps
  orthogonal box = (-184.856 -184.856 -184.856) to (184.856 184.856 184.856)
  reading atoms ...
  2844 atoms
  reading velocities ...
  2844 velocities
  scanning bonds ...
  scanning angles ...
  scanning dihedrals ...
  scanning impropers ...
  reading bonds ...
  3115 bonds
  reading angles ...
  5439 angles
  reading dihedrals ...
  8250 dihedrals
  reading impropers ...
  888 impropers
################################################################################

min_style cg
minimize 1e-05 1e-05 10000 100000
PPPM initialization ...
  G vector (1/distance) = 0.0797082
  grid = 25 25 25
  stencil order = 5
  estimated absolute RMS force accuracy = 0.0359655
  estimated relative force accuracy = 0.000108309
  3d grid and FFT values/proc = 3888 1250
  update every 1 steps, delay 0 steps, check yes
Loop time of 0.738709 on 16 procs for 14 steps with 2844 atoms

Minimization stats:
  Stopping criterion = linesearch alpha is zero
  Energy initial, next-to-last, final =
  Force two-norm initial, final = 103.762 74.838
  Force max component initial, final = 11.5019 8.94317
  Final line search alpha, max atom move = 1.52606e-12 1.36478e-11
  Iterations, force evaluations = 14 89

timestep        1
fix             pysimm_md all nvt temp 300 300 100
run             5000
PPPM initialization ...
  G vector (1/distance) = 0.0797082
  grid = 25 25 25
  stencil order = 5
  estimated absolute RMS force accuracy = 0.0359655
  estimated relative force accuracy = 0.000108309
  3d grid and FFT values/proc = 3888 1250
Loop time of 16.5498 on 16 procs for 5000 steps with 2844 atoms

unfix pysimm_md
write_dump all custom pysimm.dump.tmp id q x y z vx vy vz
quit
