################################################################################
##################################    Init    ##################################
################################################################################
units           real
atom_style      full
pair_style      lj/cut/coul/long 12.0  12.0
kspace_style    pppm 1e-4
bond_style      harmonic
angle_style     harmonic
dihedral_style  fourier
improper_style  cvff
special_bonds   amber
pair_modify     mix arithmetic
read_data       temp.lmps
  orthogonal box = (-74.2718 -74.2718 -74.2718) to (74.2718 74.2718 74.2718)
  reading atoms ...
  74 atoms
  reading velocities ...
  74 velocities
  scanning bonds ...
  scanning angles ...
  scanning dihedrals ...
  reading bonds ...
  72 bonds
  reading angles ...
  136 angles
  reading dihedrals ...
  198 dihedrals
################################################################################

timestep        1
fix             pysimm_md all nve/limit 0.1
run             2000
PPPM initialization ...
  G vector (1/distance) = 0.0913426
  grid = 12 12 12
  stencil order = 5
  estimated absolute RMS force accuracy = 0.0301095
  estimated relative force accuracy = 9.06738e-05
  3d grid and FFT values/proc = 4913 1728
  update every 1 steps, delay 10 steps, check yes
Step Temp E_pair E_mol TotEng Press
0     4.092226    709.60716    12.284017    722.78164    69.580956
Loop time of 1.41031 on 1 procs for 2000 steps with 74 atoms

unfix pysimm_md
min_style cg
minimize 0.001 0.001 10000 100000
PPPM initialization ...
  G vector (1/distance) = 0.0913426
  grid = 12 12 12
  stencil order = 5
  estimated absolute RMS force accuracy = 0.0301095
  estimated relative force accuracy = 9.06738e-05
  3d grid and FFT values/proc = 4913 1728
Step Temp E_pair E_mol TotEng Press
2000    783.99195   -98.981585    162.50851    234.12289  -0.32448969
Loop time of 0.05405 on 1 procs for 46 steps with 74 atoms

Minimization stats:
  Stopping criterion = energy tolerance
  Energy initial, next-to-last, final =
  Force two-norm initial, final = 375.843 10.911
  Force max component initial, final = 82.9516 4.2432
  Final line search alpha, max atom move = 0.0107633 0.0456707
  Iterations, force evaluations = 46 92

write_dump all custom pysimm.dump.tmp id q x y z vx vy vz
quit

################################################################################
##################################    Init    ##################################
################################################################################
units           real
atom_style      full
pair_style      lj/cut/coul/long 12.0  12.0
kspace_style    pppm 1e-4
bond_style      harmonic
angle_style     harmonic
dihedral_style  fourier
improper_style  cvff
special_bonds   amber
pair_modify     mix arithmetic
read_data       temp.lmps
  orthogonal box = (-74.2718 -74.2718 -74.2718) to (74.2718 74.2718 74.2718)
  reading atoms ...
  74 atoms
  reading velocities ...
  74 velocities
  scanning bonds ...
  scanning angles ...
  scanning dihedrals ...
  reading bonds ...
  72 bonds
  reading angles ...
  136 angles
  reading dihedrals ...
  198 dihedrals
################################################################################

timestep        1
fix             pysimm_md all nve/limit 0.1
run             2000
PPPM initialization ...
  G vector (1/distance) = 0.0913426
  grid = 12 12 12
  stencil order = 5
  estimated absolute RMS force accuracy = 0.0301095
  estimated relative force accuracy = 9.06738e-05
  3d grid and FFT values/proc = 4913 1728
  update every 1 steps, delay 10 steps, check yes
Step Temp E_pair E_mol TotEng Press
0     4.092226    709.61293    12.284017    722.78741    69.580814
Loop time of 1.04569 on 1 procs for 2000 steps with 74 atoms

unfix pysimm_md
min_style cg
minimize 0.001 0.001 10000 100000
PPPM initialization ...
  G vector (1/distance) = 0.0913426
  grid = 12 12 12
  stencil order = 5
  estimated absolute RMS force accuracy = 0.0301095
  estimated relative force accuracy = 9.06738e-05
  3d grid and FFT values/proc = 4913 1728
Step Temp E_pair E_mol TotEng Press
2000    734.11639   -89.204163    156.69204    227.23097    1.0960638
Loop time of 0.0653279 on 1 procs for 36 steps with 74 atoms

Minimization stats:
  Stopping criterion = linesearch alpha is zero
  Energy initial, next-to-last, final =
  Force two-norm initial, final = 438.408 19.6032
  Force max component initial, final = 109.587 6.7918
  Final line search alpha, max atom move = 1.85069e-11 1.25695e-10
  Iterations, force evaluations = 36 128

write_dump all custom pysimm.dump.tmp id q x y z vx vy vz
quit

################################################################################
##################################    Init    ##################################
################################################################################
units           real
atom_style      full
pair_style      lj/cut/coul/long 12.0  12.0
kspace_style    pppm 1e-4
bond_style      harmonic
angle_style     harmonic
dihedral_style  fourier
improper_style  cvff
special_bonds   amber
pair_modify     mix arithmetic
read_data       temp.lmps
  orthogonal box = (-74.2718 -74.2718 -74.2718) to (74.2718 74.2718 74.2718)
  reading atoms ...
  111 atoms
  reading velocities ...
  111 velocities
  scanning bonds ...
  scanning angles ...
  scanning dihedrals ...
  reading bonds ...
  108 bonds
  reading angles ...
  204 angles
  reading dihedrals ...
  300 dihedrals
################################################################################

timestep        1
fix             pysimm_md all nve/limit 0.1
run             2000
PPPM initialization ...
  G vector (1/distance) = 0.107204
  grid = 15 15 15
  stencil order = 5
  estimated absolute RMS force accuracy = 0.0234317
  estimated relative force accuracy = 7.05637e-05
  3d grid and FFT values/proc = 8000 3375
  update every 1 steps, delay 10 steps, check yes
Step Temp E_pair E_mol TotEng Press
0    488.54449    713.55514    47.699197    921.44275    76.306422
Loop time of 1.41702 on 1 procs for 2000 steps with 111 atoms

unfix pysimm_md
min_style cg
minimize 0.001 0.001 10000 100000
PPPM initialization ...
  G vector (1/distance) = 0.107204
  grid = 15 15 15
  stencil order = 5
  estimated absolute RMS force accuracy = 0.0234317
  estimated relative force accuracy = 7.05637e-05
  3d grid and FFT values/proc = 8000 3375
Step Temp E_pair E_mol TotEng Press
2000    730.72668   -135.59769    183.16625    287.16588  -0.86782517
Loop time of 0.108822 on 1 procs for 75 steps with 111 atoms

Minimization stats:
  Stopping criterion = energy tolerance
  Energy initial, next-to-last, final =
  Force two-norm initial, final = 444.299 14.2003
  Force max component initial, final = 137.019 4.17412
  Final line search alpha, max atom move = 0.0099541 0.0415496
  Iterations, force evaluations = 75 150

write_dump all custom pysimm.dump.tmp id q x y z vx vy vz
quit

################################################################################
##################################    Init    ##################################
################################################################################
units           real
atom_style      full
pair_style      lj/cut/coul/long 12.0  12.0
kspace_style    pppm 1e-4
bond_style      harmonic
angle_style     harmonic
dihedral_style  fourier
improper_style  cvff
special_bonds   amber
pair_modify     mix arithmetic
read_data       temp.lmps
  orthogonal box = (-49.72 -49.72 -49.72) to (49.72 49.72 49.72)
  reading atoms ...
  74 atoms
  reading velocities ...
  74 velocities
  scanning bonds ...
  scanning angles ...
  scanning dihedrals ...
  reading bonds ...
  72 bonds
  reading angles ...
  136 angles
  reading dihedrals ...
  198 dihedrals
################################################################################

timestep        1
fix             pysimm_md all nve/limit 0.1
run             2000
PPPM initialization ...
  G vector (1/distance) = 0.106899
  grid = 10 10 10
  stencil order = 5
  estimated absolute RMS force accuracy = 0.0352606
  estimated relative force accuracy = 0.000106186
  3d grid and FFT values/proc = 3375 1000
  update every 1 steps, delay 10 steps, check yes
Step Temp E_pair E_mol TotEng Press
0     4.092226    710.23251    12.284017    723.40699     231.9785
Loop time of 0.871169 on 1 procs for 2000 steps with 74 atoms

unfix pysimm_md
min_style cg
minimize 0.001 0.001 10000 100000
PPPM initialization ...
  G vector (1/distance) = 0.106899
  grid = 10 10 10
  stencil order = 5
  estimated absolute RMS force accuracy = 0.0352606
  estimated relative force accuracy = 0.000106186
  3d grid and FFT values/proc = 3375 1000
Step Temp E_pair E_mol TotEng Press
2000    771.00984   -90.121338    136.35891    214.00864   -2.9345939
Loop time of 0.0422039 on 1 procs for 48 steps with 74 atoms

Minimization stats:
  Stopping criterion = energy tolerance
  Energy initial, next-to-last, final =
  Force two-norm initial, final = 344.324 9.70706
  Force max component initial, final = 74.0519 2.49687
  Final line search alpha, max atom move = 0.0145588 0.0363516
  Iterations, force evaluations = 48 97

write_dump all custom pysimm.dump.tmp id q x y z vx vy vz
quit

################################################################################
##################################    Init    ##################################
################################################################################
units           real
atom_style      full
pair_style      lj/cut/coul/long 12.0  12.0
kspace_style    pppm 1e-4
bond_style      harmonic
angle_style     harmonic
dihedral_style  fourier
improper_style  cvff
special_bonds   amber
pair_modify     mix arithmetic
read_data       temp.lmps
  orthogonal box = (-49.72 -49.72 -49.72) to (49.72 49.72 49.72)
  reading atoms ...
  111 atoms
  reading velocities ...
  111 velocities
  scanning bonds ...
  scanning angles ...
  scanning dihedrals ...
  reading bonds ...
  108 bonds
  reading angles ...
  204 angles
  reading dihedrals ...
  300 dihedrals
################################################################################

timestep        1
fix             pysimm_md all nve/limit 0.1
run             2000
PPPM initialization ...
  G vector (1/distance) = 0.12068
  grid = 12 12 12
  stencil order = 5
  estimated absolute RMS force accuracy = 0.0274914
  estimated relative force accuracy = 8.27897e-05
  3d grid and FFT values/proc = 4913 1728
  update every 1 steps, delay 10 steps, check yes
Step Temp E_pair E_mol TotEng Press
0    513.02793 7.0488959e+10    34.470327 7.0488959e+10 1.9661777e+10
Loop time of 1.15097 on 1 procs for 2000 steps with 111 atoms

unfix pysimm_md
min_style cg
minimize 0.001 0.001 10000 100000
PPPM initialization ...
  G vector (1/distance) = 0.12068
  grid = 12 12 12
  stencil order = 5
  estimated absolute RMS force accuracy = 0.0274914
  estimated relative force accuracy = 8.27897e-05
  3d grid and FFT values/proc = 4913 1728
Step Temp E_pair E_mol TotEng Press
2000    1002.8969   -148.62046    228.36704    408.58554    8.3436227
Loop time of 0.07584 on 1 procs for 66 steps with 111 atoms

Minimization stats:
  Stopping criterion = energy tolerance
  Energy initial, next-to-last, final =
  Force two-norm initial, final = 461.789 12.6337
  Force max component initial, final = 124.292 4.49519
  Final line search alpha, max atom move = 0.00752465 0.0338247
  Iterations, force evaluations = 66 132

write_dump all custom pysimm.dump.tmp id q x y z vx vy vz
quit

################################################################################
##################################    Init    ##################################
################################################################################
units           real
atom_style      full
pair_style      lj/cut/coul/long 12.0  12.0
kspace_style    pppm 1e-4
bond_style      harmonic
angle_style     harmonic
dihedral_style  fourier
improper_style  cvff
special_bonds   amber
pair_modify     mix arithmetic
read_data       temp.lmps
  orthogonal box = (-74.2718 -74.2718 -74.2718) to (74.2718 74.2718 74.2718)
  reading atoms ...
  74 atoms
  reading velocities ...
  74 velocities
  scanning bonds ...
  scanning angles ...
  scanning dihedrals ...
  reading bonds ...
  72 bonds
  reading angles ...
  136 angles
  reading dihedrals ...
  198 dihedrals
################################################################################

timestep        1
fix             pysimm_md all nve/limit 0.1
run             2000
PPPM initialization ...
  G vector (1/distance) = 0.0913426
  grid = 12 12 12
  stencil order = 5
  estimated absolute RMS force accuracy = 0.0301095
  estimated relative force accuracy = 9.06738e-05
  3d grid and FFT values/proc = 4913 1728
  update every 1 steps, delay 10 steps, check yes
Step Temp E_pair E_mol TotEng Press
0     4.092226    709.61498    12.284017    722.78946    69.580795
Loop time of 1.20197 on 1 procs for 2000 steps with 74 atoms

unfix pysimm_md
min_style cg
minimize 0.001 0.001 10000 100000
PPPM initialization ...
  G vector (1/distance) = 0.0913426
  grid = 12 12 12
  stencil order = 5
  estimated absolute RMS force accuracy = 0.0301095
  estimated relative force accuracy = 9.06738e-05
  3d grid and FFT values/proc = 4913 1728
Step Temp E_pair E_mol TotEng Press
2000     761.3628   -97.624721    160.38385    228.43101    1.9687537
Loop time of 0.072886 on 1 procs for 37 steps with 74 atoms

Minimization stats:
  Stopping criterion = linesearch alpha is zero
  Energy initial, next-to-last, final =
  Force two-norm initial, final = 419.306 18.1726
  Force max component initial, final = 106.715 6.73204
  Final line search alpha, max atom move = 3.91292e-11 2.63419e-10
  Iterations, force evaluations = 37 127

write_dump all custom pysimm.dump.tmp id q x y z vx vy vz
quit

################################################################################
##################################    Init    ##################################
################################################################################
units           real
atom_style      full
pair_style      lj/cut/coul/long 12.0  12.0
kspace_style    pppm 1e-4
bond_style      harmonic
angle_style     harmonic
dihedral_style  fourier
improper_style  cvff
special_bonds   amber
pair_modify     mix arithmetic
read_data       temp.lmps
  orthogonal box = (-74.2718 -74.2718 -74.2718) to (74.2718 74.2718 74.2718)
  reading atoms ...
  111 atoms
  reading velocities ...
  111 velocities
  scanning bonds ...
  scanning angles ...
  scanning dihedrals ...
  reading bonds ...
  108 bonds
  reading angles ...
  204 angles
  reading dihedrals ...
  300 dihedrals
################################################################################

timestep        1
fix             pysimm_md all nve/limit 0.1
run             2000
PPPM initialization ...
  G vector (1/distance) = 0.107204
  grid = 15 15 15
  stencil order = 5
  estimated absolute RMS force accuracy = 0.0234317
  estimated relative force accuracy = 7.05637e-05
  3d grid and FFT values/proc = 8000 3375
  update every 1 steps, delay 10 steps, check yes
Step Temp E_pair E_mol TotEng Press
0    506.62559    7639.8346    39.871955    7845.8236    657.56522
Loop time of 1.75324 on 1 procs for 2000 steps with 111 atoms

unfix pysimm_md
min_style cg
minimize 0.001 0.001 10000 100000
PPPM initialization ...
  G vector (1/distance) = 0.107204
  grid = 15 15 15
  stencil order = 5
  estimated absolute RMS force accuracy = 0.0234317
  estimated relative force accuracy = 7.05637e-05
  3d grid and FFT values/proc = 8000 3375
Step Temp E_pair E_mol TotEng Press
2000    959.16929    -132.8037    203.60152    385.29899    1.6074541
Loop time of 0.116217 on 1 procs for 50 steps with 111 atoms

Minimization stats:
  Stopping criterion = linesearch alpha is zero
  Energy initial, next-to-last, final =
  Force two-norm initial, final = 465.719 16.0853
  Force max component initial, final = 93.9524 3.12984
  Final line search alpha, max atom move = 2.80679e-11 8.78482e-11
  Iterations, force evaluations = 50 156

write_dump all custom pysimm.dump.tmp id q x y z vx vy vz
quit

################################################################################
##################################    Init    ##################################
################################################################################
units           real
atom_style      full
pair_style      lj/cut/coul/long 12.0  12.0
kspace_style    pppm 1e-4
bond_style      harmonic
angle_style     harmonic
dihedral_style  fourier
improper_style  cvff
special_bonds   amber
pair_modify     mix arithmetic
read_data       temp.lmps
  orthogonal box = (-49.72 -49.72 -49.72) to (49.72 49.72 49.72)
  reading atoms ...
  74 atoms
  reading velocities ...
  74 velocities
  scanning bonds ...
  scanning angles ...
  scanning dihedrals ...
  reading bonds ...
  73 bonds
  reading angles ...
  136 angles
  reading dihedrals ...
  198 dihedrals
################################################################################

timestep        1
fix             pysimm_md all nve/limit 0.1
run             2000
PPPM initialization ...
  G vector (1/distance) = 0.106899
  grid = 10 10 10
  stencil order = 5
  estimated absolute RMS force accuracy = 0.0352606
  estimated relative force accuracy = 0.000106186
  3d grid and FFT values/proc = 3375 1000
  update every 1 steps, delay 10 steps, check yes
Step Temp E_pair E_mol TotEng Press
0     4.092226   -137.01479    48.858144   -87.266186   -10.705893
Loop time of 0.803912 on 1 procs for 2000 steps with 74 atoms

unfix pysimm_md
min_style cg
minimize 0.001 0.001 10000 100000
PPPM initialization ...
  G vector (1/distance) = 0.106899
  grid = 10 10 10
  stencil order = 5
  estimated absolute RMS force accuracy = 0.0352606
  estimated relative force accuracy = 0.000106186
  3d grid and FFT values/proc = 3375 1000
Step Temp E_pair E_mol TotEng Press
2000    100.15448   -141.52784    32.881543   -86.852763  -0.12034069
Loop time of 0.0166712 on 1 procs for 21 steps with 74 atoms

Minimization stats:
  Stopping criterion = energy tolerance
  Energy initial, next-to-last, final =
  Force two-norm initial, final = 146.107 15.3293
  Force max component initial, final = 43.7483 3.91428
  Final line search alpha, max atom move = 0.0100378 0.0392907
  Iterations, force evaluations = 21 42

write_dump all custom pysimm.dump.tmp id q x y z vx vy vz
quit

################################################################################
##################################    Init    ##################################
################################################################################
units           real
atom_style      full
pair_style      lj/cut/coul/long 12.0  12.0
kspace_style    pppm 1e-4
bond_style      harmonic
angle_style     harmonic
dihedral_style  fourier
improper_style  cvff
special_bonds   amber
pair_modify     mix arithmetic
read_data       temp.lmps
  orthogonal box = (-49.72 -49.72 -49.72) to (49.72 49.72 49.72)
  reading atoms ...
  111 atoms
  reading velocities ...
  111 velocities
  scanning bonds ...
  scanning angles ...
  scanning dihedrals ...
  reading bonds ...
  110 bonds
  reading angles ...
  204 angles
  reading dihedrals ...
  300 dihedrals
################################################################################

timestep        1
fix             pysimm_md all nve/limit 0.1
run             2000
PPPM initialization ...
  G vector (1/distance) = 0.12068
  grid = 12 12 12
  stencil order = 5
  estimated absolute RMS force accuracy = 0.0274914
  estimated relative force accuracy = 8.27897e-05
  3d grid and FFT values/proc = 4913 1728
  update every 1 steps, delay 10 steps, check yes
Step Temp E_pair E_mol TotEng Press
0    67.824009   -222.20229    57.432669   -142.53087    -6.602399
Loop time of 1.66898 on 1 procs for 2000 steps with 111 atoms

unfix pysimm_md
min_style cg
minimize 0.001 0.001 10000 100000
PPPM initialization ...
  G vector (1/distance) = 0.12068
  grid = 12 12 12
  stencil order = 5
  estimated absolute RMS force accuracy = 0.0274914
  estimated relative force accuracy = 8.27897e-05
  3d grid and FFT values/proc = 4913 1728
Step Temp E_pair E_mol TotEng Press
2000    115.09576   -231.57175    51.759934   -142.07317    0.2412092
Loop time of 0.0317609 on 1 procs for 23 steps with 111 atoms

Minimization stats:
  Stopping criterion = energy tolerance
  Energy initial, next-to-last, final =
  Force two-norm initial, final = 204.373 16.0255
  Force max component initial, final = 50.0302 3.09577
  Final line search alpha, max atom move = 0.00762871 0.0236168
  Iterations, force evaluations = 23 46

write_dump all custom pysimm.dump.tmp id q x y z vx vy vz
quit

################################################################################
##################################    Init    ##################################
################################################################################
units           real
atom_style      full
pair_style      lj/cut/coul/long 12.0  12.0
kspace_style    pppm 1e-4
bond_style      harmonic
angle_style     harmonic
dihedral_style  fourier
improper_style  cvff
special_bonds   amber
pair_modify     mix arithmetic
read_data       temp.lmps
  orthogonal box = (-74.2718 -74.2718 -74.2718) to (74.2718 74.2718 74.2718)
  reading atoms ...
  74 atoms
  reading velocities ...
  74 velocities
  scanning bonds ...
  scanning angles ...
  scanning dihedrals ...
  reading bonds ...
  73 bonds
  reading angles ...
  136 angles
  reading dihedrals ...
  198 dihedrals
################################################################################

timestep        1
fix             pysimm_md all nve/limit 0.1
run             2000
PPPM initialization ...
  G vector (1/distance) = 0.0913426
  grid = 12 12 12
  stencil order = 5
  estimated absolute RMS force accuracy = 0.0301095
  estimated relative force accuracy = 9.06738e-05
  3d grid and FFT values/proc = 4913 1728
  update every 1 steps, delay 10 steps, check yes
Step Temp E_pair E_mol TotEng Press
0     4.092226   -137.62911    48.858144   -87.880498   -3.2247092
Loop time of 1.17241 on 1 procs for 2000 steps with 74 atoms

unfix pysimm_md
min_style cg
minimize 0.001 0.001 10000 100000
PPPM initialization ...
  G vector (1/distance) = 0.0913426
  grid = 12 12 12
  stencil order = 5
  estimated absolute RMS force accuracy = 0.0301095
  estimated relative force accuracy = 9.06738e-05
  3d grid and FFT values/proc = 4913 1728
Step Temp E_pair E_mol TotEng Press
2000    91.896179   -143.14939     35.56952    -87.58334   -0.3699844
Loop time of 0.046277 on 1 procs for 11 steps with 74 atoms

Minimization stats:
  Stopping criterion = linesearch alpha is zero
  Energy initial, next-to-last, final =
  Force two-norm initial, final = 137.99 19.8955
  Force max component initial, final = 45.8759 6.8572
  Final line search alpha, max atom move = 2.29203e-11 1.57169e-10
  Iterations, force evaluations = 11 78

write_dump all custom pysimm.dump.tmp id q x y z vx vy vz
quit

################################################################################
##################################    Init    ##################################
################################################################################
units           real
atom_style      full
pair_style      lj/cut/coul/long 12.0  12.0
kspace_style    pppm 1e-4
bond_style      harmonic
angle_style     harmonic
dihedral_style  fourier
improper_style  cvff
special_bonds   amber
pair_modify     mix arithmetic
read_data       temp.lmps
  orthogonal box = (-74.2718 -74.2718 -74.2718) to (74.2718 74.2718 74.2718)
  reading atoms ...
  111 atoms
  reading velocities ...
  111 velocities
  scanning bonds ...
  scanning angles ...
  scanning dihedrals ...
  reading bonds ...
  110 bonds
  reading angles ...
  204 angles
  reading dihedrals ...
  300 dihedrals
################################################################################

timestep        1
fix             pysimm_md all nve/limit 0.1
run             2000
PPPM initialization ...
  G vector (1/distance) = 0.107204
  grid = 15 15 15
  stencil order = 5
  estimated absolute RMS force accuracy = 0.0234317
  estimated relative force accuracy = 7.05637e-05
  3d grid and FFT values/proc = 8000 3375
  update every 1 steps, delay 10 steps, check yes
Step Temp E_pair E_mol TotEng Press
0    62.343537   -225.02661    61.369523   -143.21532   -2.7979302
Loop time of 1.83379 on 1 procs for 2000 steps with 111 atoms

unfix pysimm_md
min_style cg
minimize 0.001 0.001 10000 100000
PPPM initialization ...
  G vector (1/distance) = 0.107204
  grid = 15 15 15
  stencil order = 5
  estimated absolute RMS force accuracy = 0.0234317
  estimated relative force accuracy = 7.05637e-05
  3d grid and FFT values/proc = 8000 3375
Step Temp E_pair E_mol TotEng Press
2000     115.3526   -233.70907    52.998011    -142.8882   -1.4998149
Loop time of 0.036078 on 1 procs for 22 steps with 111 atoms

Minimization stats:
  Stopping criterion = energy tolerance
  Energy initial, next-to-last, final =
  Force two-norm initial, final = 174.582 19.5964
  Force max component initial, final = 35.3222 4.47344
  Final line search alpha, max atom move = 0.00485162 0.0217034
  Iterations, force evaluations = 22 44

write_dump all custom pysimm.dump.tmp id q x y z vx vy vz
quit

################################################################################
##################################    Init    ##################################
################################################################################
units           real
atom_style      full
pair_style      lj/cut/coul/long 12.0  12.0
kspace_style    pppm 1e-4
bond_style      harmonic
angle_style     harmonic
dihedral_style  fourier
improper_style  cvff
special_bonds   amber
pair_modify     mix arithmetic
read_data       temp.lmps
  orthogonal box = (-49.72 -49.72 -49.72) to (49.72 49.72 49.72)
  reading atoms ...
  74 atoms
  reading velocities ...
  74 velocities
  scanning bonds ...
  scanning angles ...
  scanning dihedrals ...
  reading bonds ...
  73 bonds
  reading angles ...
  139 angles
  reading dihedrals ...
  198 dihedrals
################################################################################

timestep        1
fix             pysimm_md all nve/limit 0.1
run             2000
PPPM initialization ...
  G vector (1/distance) = 0.106899
  grid = 10 10 10
  stencil order = 5
  estimated absolute RMS force accuracy = 0.0352606
  estimated relative force accuracy = 0.000106186
  3d grid and FFT values/proc = 3375 1000
  update every 1 steps, delay 10 steps, check yes
Step Temp E_pair E_mol TotEng Press
0     4.092226   -137.01612    99.682683   -36.442971    -10.70596
Loop time of 0.817339 on 1 procs for 2000 steps with 74 atoms

unfix pysimm_md
min_style cg
minimize 0.001 0.001 10000 100000
PPPM initialization ...
  G vector (1/distance) = 0.106899
  grid = 10 10 10
  stencil order = 5
  estimated absolute RMS force accuracy = 0.0352606
  estimated relative force accuracy = 0.000106186
  3d grid and FFT values/proc = 3375 1000
Step Temp E_pair E_mol TotEng Press
2000    168.41576   -137.85478    64.304607   -36.903047   -10.995975
Loop time of 0.0526419 on 1 procs for 31 steps with 74 atoms

Minimization stats:
  Stopping criterion = linesearch alpha is zero
  Energy initial, next-to-last, final =
  Force two-norm initial, final = 171.271 23.1798
  Force max component initial, final = 35.2096 5.45498
  Final line search alpha, max atom move = 2.16468e-11 1.18083e-10
  Iterations, force evaluations = 31 117

write_dump all custom pysimm.dump.tmp id q x y z vx vy vz
quit

################################################################################
##################################    Init    ##################################
################################################################################
units           real
atom_style      full
pair_style      lj/cut/coul/long 12.0  12.0
kspace_style    pppm 1e-4
bond_style      harmonic
angle_style     harmonic
dihedral_style  fourier
improper_style  cvff
special_bonds   amber
pair_modify     mix arithmetic
read_data       temp.lmps
  orthogonal box = (-49.72 -49.72 -49.72) to (49.72 49.72 49.72)
  reading atoms ...
  111 atoms
  reading velocities ...
  111 velocities
  scanning bonds ...
  scanning angles ...
  scanning dihedrals ...
  reading bonds ...
  110 bonds
  reading angles ...
  210 angles
  reading dihedrals ...
  300 dihedrals
################################################################################

timestep        1
fix             pysimm_md all nve/limit 0.1
run             2000
PPPM initialization ...
  G vector (1/distance) = 0.12068
  grid = 12 12 12
  stencil order = 5
  estimated absolute RMS force accuracy = 0.0274914
  estimated relative force accuracy = 8.27897e-05
  3d grid and FFT values/proc = 4913 1728
  update every 1 steps, delay 10 steps, check yes
Step Temp E_pair E_mol TotEng Press
0    113.12469   -226.11336    100.90484   -88.116176   -7.2905101
Loop time of 1.17591 on 1 procs for 2000 steps with 111 atoms

unfix pysimm_md
min_style cg
minimize 0.001 0.001 10000 100000
PPPM initialization ...
  G vector (1/distance) = 0.12068
  grid = 12 12 12
  stencil order = 5
  estimated absolute RMS force accuracy = 0.0274914
  estimated relative force accuracy = 8.27897e-05
  3d grid and FFT values/proc = 4913 1728
Step Temp E_pair E_mol TotEng Press
2000     176.7143   -227.24982     81.91313   -87.393998   0.82988674
Loop time of 0.0392361 on 1 procs for 31 steps with 111 atoms

Minimization stats:
  Stopping criterion = energy tolerance
  Energy initial, next-to-last, final =
  Force two-norm initial, final = 220.83 17.7503
  Force max component initial, final = 50.2635 5.46634
  Final line search alpha, max atom move = 0.00948271 0.0518358
  Iterations, force evaluations = 31 62

write_dump all custom pysimm.dump.tmp id q x y z vx vy vz
quit

################################################################################
##################################    Init    ##################################
################################################################################
units           real
atom_style      full
pair_style      lj/cut/coul/long 12.0  12.0
kspace_style    pppm 1e-4
bond_style      harmonic
angle_style     harmonic
dihedral_style  fourier
improper_style  cvff
special_bonds   amber
pair_modify     mix arithmetic
read_data       temp.lmps
  orthogonal box = (-49.72 -49.72 -49.72) to (49.72 49.72 49.72)
  reading atoms ...
  74 atoms
  reading velocities ...
  74 velocities
  scanning bonds ...
  scanning angles ...
  scanning dihedrals ...
  reading bonds ...
  73 bonds
  reading angles ...
  140 angles
  reading dihedrals ...
  198 dihedrals
################################################################################

timestep        1
fix             pysimm_md all nve/limit 0.1
run             2000
PPPM initialization ...
  G vector (1/distance) = 0.106899
  grid = 10 10 10
  stencil order = 5
  estimated absolute RMS force accuracy = 0.0352606
  estimated relative force accuracy = 0.000106186
  3d grid and FFT values/proc = 3375 1000
  update every 1 steps, delay 10 steps, check yes
Step Temp E_pair E_mol TotEng Press
0     4.092226   -137.01378     113.1426   -22.980721   -10.706108
Loop time of 0.813222 on 1 procs for 2000 steps with 74 atoms

unfix pysimm_md
min_style cg
minimize 0.001 0.001 10000 100000
PPPM initialization ...
  G vector (1/distance) = 0.106899
  grid = 10 10 10
  stencil order = 5
  estimated absolute RMS force accuracy = 0.0352606
  estimated relative force accuracy = 0.000106186
  3d grid and FFT values/proc = 3375 1000
Step Temp E_pair E_mol TotEng Press
2000    262.45405   -138.81997    57.112047   -24.598147    -1.176979
Loop time of 0.0252731 on 1 procs for 27 steps with 74 atoms

Minimization stats:
  Stopping criterion = energy tolerance
  Energy initial, next-to-last, final =
  Force two-norm initial, final = 164.807 23.4547
  Force max component initial, final = 40.4275 7.4281
  Final line search alpha, max atom move = 0.00296165 0.0219995
  Iterations, force evaluations = 27 54

write_dump all custom pysimm.dump.tmp id q x y z vx vy vz
quit

################################################################################
##################################    Init    ##################################
################################################################################
units           real
atom_style      full
pair_style      lj/cut/coul/long 12.0  12.0
kspace_style    pppm 1e-4
bond_style      harmonic
angle_style     harmonic
dihedral_style  fourier
improper_style  cvff
special_bonds   amber
pair_modify     mix arithmetic
read_data       temp.lmps
  orthogonal box = (-49.72 -49.72 -49.72) to (49.72 49.72 49.72)
  reading atoms ...
  111 atoms
  reading velocities ...
  111 velocities
  scanning bonds ...
  scanning angles ...
  scanning dihedrals ...
  reading bonds ...
  110 bonds
  reading angles ...
  212 angles
  reading dihedrals ...
  300 dihedrals
################################################################################

timestep        1
fix             pysimm_md all nve/limit 0.1
run             2000
PPPM initialization ...
  G vector (1/distance) = 0.12068
  grid = 12 12 12
  stencil order = 5
  estimated absolute RMS force accuracy = 0.0274914
  estimated relative force accuracy = 8.27897e-05
  3d grid and FFT values/proc = 4913 1728
  update every 1 steps, delay 10 steps, check yes
Step Temp E_pair E_mol TotEng Press
0    175.53195   -221.30019    108.07468   -55.670497      -7.0892
Loop time of 1.23275 on 1 procs for 2000 steps with 111 atoms

unfix pysimm_md
min_style cg
minimize 0.001 0.001 10000 100000
PPPM initialization ...
  G vector (1/distance) = 0.12068
  grid = 12 12 12
  stencil order = 5
  estimated absolute RMS force accuracy = 0.0274914
  estimated relative force accuracy = 8.27897e-05
  3d grid and FFT values/proc = 4913 1728
Step Temp E_pair E_mol TotEng Press
2000     185.9295   -223.33176    102.04684   -60.320658    3.0826118
Loop time of 0.0725341 on 1 procs for 31 steps with 111 atoms

Minimization stats:
  Stopping criterion = linesearch alpha is zero
  Energy initial, next-to-last, final =
  Force two-norm initial, final = 271.146 24.1756
  Force max component initial, final = 53.8686 8.97209
  Final line search alpha, max atom move = 1.88894e-11 1.69478e-10
  Iterations, force evaluations = 31 117

write_dump all custom pysimm.dump.tmp id q x y z vx vy vz
quit
