################################################################################
##################################    Init    ##################################
################################################################################
units           real
atom_style      full
pair_style      lj/cut/coul/long 12.0  12.0
kspace_style    pppm 1e-4
bond_style      harmonic
angle_style     harmonic
dihedral_style  fourier
improper_style  cvff
special_bonds   amber
pair_modify     mix arithmetic
read_data       temp.lmps
  orthogonal box = (-105.178 -105.178 -105.178) to (105.178 105.178 105.178)
  reading atoms ...
  554 atoms
  reading velocities ...
  554 velocities
  scanning bonds ...
  scanning angles ...
  scanning dihedrals ...
  scanning impropers ...
  reading bonds ...
  603 bonds
  reading angles ...
  1063 angles
  reading dihedrals ...
  1590 dihedrals
  reading impropers ...
  164 impropers
################################################################################

min_style cg
minimize 1e-05 1e-05 10000 100000
PPPM initialization ...
  G vector (1/distance) = 0.0953085
  grid = 18 18 18
  stencil order = 5
  estimated absolute RMS force accuracy = 0.0292813
  estimated relative force accuracy = 8.81799e-05
  3d grid and FFT values/proc = 1960 648
  update every 1 steps, delay 0 steps, check yes
Step Temp E_pair E_mol TotEng Press
0    1842.7071    388.77788    1135.1375    4561.4116    16.041462
Loop time of 0.590961 on 16 procs for 75 steps with 554 atoms

Minimization stats:
  Stopping criterion = linesearch alpha is zero
  Energy initial, next-to-last, final =
  Force two-norm initial, final = 90.4308 45.8321
  Force max component initial, final = 11.3168 7.64801
  Final line search alpha, max atom move = 3.35642e-12 2.56699e-11
  Iterations, force evaluations = 75 209

timestep        1
fix             pysimm_md all nvt temp 300 300 100
run             5000
PPPM initialization ...
  G vector (1/distance) = 0.0953085
  grid = 18 18 18
  stencil order = 5
  estimated absolute RMS force accuracy = 0.0292813
  estimated relative force accuracy = 8.81799e-05
  3d grid and FFT values/proc = 1960 648
Step Temp E_pair E_mol TotEng Press
75    1842.7071    375.91565    968.10421    4381.5161    15.422588
Loop time of 4.45992 on 16 procs for 5000 steps with 554 atoms

unfix pysimm_md
write_dump all custom pysimm.dump.tmp id q x y z vx vy vz
quit

################################################################################
##################################    Init    ##################################
################################################################################
units           real
atom_style      full
pair_style      lj/cut/coul/long 12.0  12.0
kspace_style    pppm 1e-4
bond_style      harmonic
angle_style     harmonic
dihedral_style  fourier
improper_style  cvff
special_bonds   amber
pair_modify     mix arithmetic
read_data       temp.lmps
  orthogonal box = (-108.574 -108.574 -108.574) to (108.574 108.574 108.574)
  reading atoms ...
  595 atoms
  reading velocities ...
  595 velocities
  scanning bonds ...
  scanning angles ...
  scanning dihedrals ...
  scanning impropers ...
  reading bonds ...
  649 bonds
  reading angles ...
  1141 angles
  reading dihedrals ...
  1728 dihedrals
  reading impropers ...
  182 impropers
################################################################################

min_style cg
minimize 1e-05 1e-05 10000 100000
PPPM initialization ...
  G vector (1/distance) = 0.0931067
  grid = 18 18 18
  stencil order = 5
  estimated absolute RMS force accuracy = 0.032784
  estimated relative force accuracy = 9.8728e-05
  3d grid and FFT values/proc = 1960 648
  update every 1 steps, delay 0 steps, check yes
Step Temp E_pair E_mol TotEng Press
0    1526.8322     455.2422    1180.7833    4339.4364    13.131176
Loop time of 0.155171 on 16 procs for 20 steps with 595 atoms

Minimization stats:
  Stopping criterion = linesearch alpha is zero
  Energy initial, next-to-last, final =
  Force two-norm initial, final = 78.2575 54.6683
  Force max component initial, final = 8.79492 9.59578
  Final line search alpha, max atom move = 3.09667e-12 2.9715e-11
  Iterations, force evaluations = 20 99

timestep        1
fix             pysimm_md all nvt temp 300 300 100
run             5000
PPPM initialization ...
  G vector (1/distance) = 0.0931067
  grid = 18 18 18
  stencil order = 5
  estimated absolute RMS force accuracy = 0.032784
  estimated relative force accuracy = 9.8728e-05
  3d grid and FFT values/proc = 1960 648
Step Temp E_pair E_mol TotEng Press
20    1526.8322    447.59938    1157.8655    4308.8757    12.575724
Loop time of 3.60186 on 16 procs for 5000 steps with 595 atoms

unfix pysimm_md
write_dump all custom pysimm.dump.tmp id q x y z vx vy vz
quit

################################################################################
##################################    Init    ##################################
################################################################################
units           real
atom_style      full
pair_style      lj/cut/coul/long 12.0  12.0
kspace_style    pppm 1e-4
bond_style      harmonic
angle_style     harmonic
dihedral_style  fourier
improper_style  cvff
special_bonds   amber
pair_modify     mix arithmetic
read_data       temp.lmps
  orthogonal box = (-112.567 -112.567 -112.567) to (112.567 112.567 112.567)
  reading atoms ...
  654 atoms
  reading velocities ...
  654 velocities
  scanning bonds ...
  scanning angles ...
  scanning dihedrals ...
  scanning impropers ...
  reading bonds ...
  713 bonds
  reading angles ...
  1256 angles
  reading dihedrals ...
  1896 dihedrals
  reading impropers ...
  198 impropers
################################################################################

min_style cg
minimize 1e-05 1e-05 10000 100000
PPPM initialization ...
  G vector (1/distance) = 0.0906392
  grid = 18 18 18
  stencil order = 5
  estimated absolute RMS force accuracy = 0.0340572
  estimated relative force accuracy = 0.000102562
  3d grid and FFT values/proc = 1960 648
  update every 1 steps, delay 0 steps, check yes
Step Temp E_pair E_mol TotEng Press
0    2295.4776    529.98137    1257.2279    6255.2853    19.236469
Loop time of 0.183383 on 16 procs for 17 steps with 654 atoms

Minimization stats:
  Stopping criterion = linesearch alpha is zero
  Energy initial, next-to-last, final =
  Force two-norm initial, final = 82.5588 64.9124
  Force max component initial, final = 10.6943 7.43994
  Final line search alpha, max atom move = 2.69456e-12 2.00474e-11
  Iterations, force evaluations = 17 93

timestep        1
fix             pysimm_md all nvt temp 300 300 100
run             5000
PPPM initialization ...
  G vector (1/distance) = 0.0906392
  grid = 18 18 18
  stencil order = 5
  estimated absolute RMS force accuracy = 0.0340572
  estimated relative force accuracy = 0.000102562
  3d grid and FFT values/proc = 1960 648
Step Temp E_pair E_mol TotEng Press
17    2295.4776    516.84244    1229.4265    6214.3449    18.994728
Loop time of 4.10855 on 16 procs for 5000 steps with 654 atoms

unfix pysimm_md
write_dump all custom pysimm.dump.tmp id q x y z vx vy vz
quit

################################################################################
##################################    Init    ##################################
################################################################################
units           real
atom_style      full
pair_style      lj/cut/coul/long 12.0  12.0
kspace_style    pppm 1e-4
bond_style      harmonic
angle_style     harmonic
dihedral_style  fourier
improper_style  cvff
special_bonds   amber
pair_modify     mix arithmetic
read_data       temp.lmps
  orthogonal box = (-114.791 -114.791 -114.791) to (114.791 114.791 114.791)
  reading atoms ...
  704 atoms
  reading velocities ...
  704 velocities
  scanning bonds ...
  scanning angles ...
  scanning dihedrals ...
  scanning impropers ...
  reading bonds ...
  768 bonds
  reading angles ...
  1351 angles
  reading dihedrals ...
  2046 dihedrals
  reading impropers ...
  215 impropers
################################################################################

min_style cg
minimize 1e-05 1e-05 10000 100000
PPPM initialization ...
  G vector (1/distance) = 0.0965602
  grid = 20 20 20
  stencil order = 5
  estimated absolute RMS force accuracy = 0.0297582
  estimated relative force accuracy = 8.9616e-05
  3d grid and FFT values/proc = 2250 800
  update every 1 steps, delay 0 steps, check yes
Step Temp E_pair E_mol TotEng Press
0    6320.5677    536.63866    1207.1456    14988.594    45.210501
Loop time of 0.438143 on 16 procs for 56 steps with 704 atoms

Minimization stats:
  Stopping criterion = linesearch alpha is zero
  Energy initial, next-to-last, final =
  Force two-norm initial, final = 73.7982 36.2776
  Force max component initial, final = 10.1203 5.28712
  Final line search alpha, max atom move = 6.11515e-12 3.23315e-11
  Iterations, force evaluations = 56 169

timestep        1
fix             pysimm_md all nvt temp 300 300 100
run             5000
PPPM initialization ...
  G vector (1/distance) = 0.0965602
  grid = 20 20 20
  stencil order = 5
  estimated absolute RMS force accuracy = 0.0297582
  estimated relative force accuracy = 8.9616e-05
  3d grid and FFT values/proc = 2250 800
Step Temp E_pair E_mol TotEng Press
56    6320.5677    525.00381    1143.1236    14912.937    47.856727
Loop time of 5.2881 on 16 procs for 5000 steps with 704 atoms

unfix pysimm_md
write_dump all custom pysimm.dump.tmp id q x y z vx vy vz
quit

################################################################################
##################################    Init    ##################################
################################################################################
units           real
atom_style      full
pair_style      lj/cut/coul/long 12.0  12.0
kspace_style    pppm 1e-4
bond_style      harmonic
angle_style     harmonic
dihedral_style  fourier
improper_style  cvff
special_bonds   amber
pair_modify     mix arithmetic
read_data       temp.lmps
  orthogonal box = (-117.662 -117.662 -117.662) to (117.662 117.662 117.662)
  reading atoms ...
  763 atoms
  reading velocities ...
  763 velocities
  scanning bonds ...
  scanning angles ...
  scanning dihedrals ...
  scanning impropers ...
  reading bonds ...
  832 bonds
  reading angles ...
  1465 angles
  reading dihedrals ...
  2212 dihedrals
  reading impropers ...
  231 impropers
################################################################################

min_style cg
minimize 1e-05 1e-05 10000 100000
PPPM initialization ...
  G vector (1/distance) = 0.0948345
  grid = 20 20 20
  stencil order = 5
  estimated absolute RMS force accuracy = 0.0307745
  estimated relative force accuracy = 9.26765e-05
  3d grid and FFT values/proc = 2250 800
  update every 1 steps, delay 0 steps, check yes
Step Temp E_pair E_mol TotEng Press
0    1098.9339    588.41211      1284.05    4368.5555     9.202179
Loop time of 0.277733 on 16 procs for 38 steps with 763 atoms

Minimization stats:
  Stopping criterion = linesearch alpha is zero
  Energy initial, next-to-last, final =
  Force two-norm initial, final = 78.6848 42.3742
  Force max component initial, final = 9.7037 5.02935
  Final line search alpha, max atom move = 4.12964e-12 2.07694e-11
  Iterations, force evaluations = 38 135

timestep        1
fix             pysimm_md all nvt temp 300 300 100
run             5000
PPPM initialization ...
  G vector (1/distance) = 0.0948345
  grid = 20 20 20
  stencil order = 5
  estimated absolute RMS force accuracy = 0.0307745
  estimated relative force accuracy = 9.26765e-05
  3d grid and FFT values/proc = 2250 800
Step Temp E_pair E_mol TotEng Press
38    1098.9339    560.40495    1219.0708    4275.5692     8.012561
Loop time of 5.19664 on 16 procs for 5000 steps with 763 atoms

unfix pysimm_md
write_dump all custom pysimm.dump.tmp id q x y z vx vy vz
quit

################################################################################
##################################    Init    ##################################
################################################################################
units           real
atom_style      full
pair_style      lj/cut/coul/long 12.0  12.0
kspace_style    pppm 1e-4
bond_style      harmonic
angle_style     harmonic
dihedral_style  fourier
improper_style  cvff
special_bonds   amber
pair_modify     mix arithmetic
read_data       temp.lmps
  orthogonal box = (-121.259 -121.259 -121.259) to (121.259 121.259 121.259)
  reading atoms ...
  867 atoms
  reading velocities ...
  867 velocities
  scanning bonds ...
  scanning angles ...
  scanning dihedrals ...
  scanning impropers ...
  reading bonds ...
  941 bonds
  reading angles ...
  1670 angles
  reading dihedrals ...
  2450 dihedrals
  reading impropers ...
  242 impropers
################################################################################

min_style cg
minimize 1e-05 1e-05 10000 100000
PPPM initialization ...
  G vector (1/distance) = 0.0856802
  grid = 18 18 18
  stencil order = 5
  estimated absolute RMS force accuracy = 0.0336313
  estimated relative force accuracy = 0.00010128
  3d grid and FFT values/proc = 1960 648
  update every 1 steps, delay 0 steps, check yes
Step Temp E_pair E_mol TotEng Press
0    1213.9317    679.13149    1354.8623    5167.6146    10.408096
Loop time of 0.456785 on 16 procs for 50 steps with 867 atoms

Minimization stats:
  Stopping criterion = linesearch alpha is zero
  Energy initial, next-to-last, final =
  Force two-norm initial, final = 87.1819 53.8148
  Force max component initial, final = 10.4195 8.82328
  Final line search alpha, max atom move = 2.35025e-12 2.07369e-11
  Iterations, force evaluations = 50 173

timestep        1
fix             pysimm_md all nvt temp 300 300 100
run             5000
PPPM initialization ...
  G vector (1/distance) = 0.0856802
  grid = 18 18 18
  stencil order = 5
  estimated absolute RMS force accuracy = 0.0336313
  estimated relative force accuracy = 0.00010128
  3d grid and FFT values/proc = 1960 648
Step Temp E_pair E_mol TotEng Press
50    1213.9317    670.49788     1248.568    5052.6867    10.434504
Loop time of 4.68619 on 16 procs for 5000 steps with 867 atoms

unfix pysimm_md
write_dump all custom pysimm.dump.tmp id q x y z vx vy vz
quit

################################################################################
##################################    Init    ##################################
################################################################################
units           real
atom_style      full
pair_style      lj/cut/coul/long 12.0  12.0
kspace_style    pppm 1e-4
bond_style      harmonic
angle_style     harmonic
dihedral_style  fourier
improper_style  cvff
special_bonds   amber
pair_modify     mix arithmetic
read_data       temp.lmps
  orthogonal box = (-123.896 -123.896 -123.896) to (123.896 123.896 123.896)
  reading atoms ...
  863 atoms
  reading velocities ...
  863 velocities
  scanning bonds ...
  scanning angles ...
  scanning dihedrals ...
  scanning impropers ...
  reading bonds ...
  942 bonds
  reading angles ...
  1658 angles
  reading dihedrals ...
  2518 dihedrals
  reading impropers ...
  265 impropers
################################################################################

min_style cg
minimize 1e-05 1e-05 10000 100000
PPPM initialization ...
  G vector (1/distance) = 0.0912822
  grid = 20 20 20
  stencil order = 5
  estimated absolute RMS force accuracy = 0.034256
  estimated relative force accuracy = 0.000103161
  3d grid and FFT values/proc = 2250 800
  update every 1 steps, delay 0 steps, check yes
Step Temp E_pair E_mol TotEng Press
0    2031.0982    681.07129    1646.6962    7546.5896    14.778559
Loop time of 0.164916 on 16 procs for 16 steps with 863 atoms

Minimization stats:
  Stopping criterion = linesearch alpha is zero
  Energy initial, next-to-last, final =
  Force two-norm initial, final = 74.5806 65.9971
  Force max component initial, final = 9.06463 7.48601
  Final line search alpha, max atom move = 1.59149e-12 1.19139e-11
  Iterations, force evaluations = 16 91

timestep        1
fix             pysimm_md all nvt temp 300 300 100
run             5000
PPPM initialization ...
  G vector (1/distance) = 0.0912822
  grid = 20 20 20
  stencil order = 5
  estimated absolute RMS force accuracy = 0.034256
  estimated relative force accuracy = 0.000103161
  3d grid and FFT values/proc = 2250 800
Step Temp E_pair E_mol TotEng Press
16    2031.0982    684.49178    1617.4968    7520.8108    15.641733
Loop time of 4.70363 on 16 procs for 5000 steps with 863 atoms

unfix pysimm_md
write_dump all custom pysimm.dump.tmp id q x y z vx vy vz
quit

################################################################################
##################################    Init    ##################################
################################################################################
units           real
atom_style      full
pair_style      lj/cut/coul/long 12.0  12.0
kspace_style    pppm 1e-4
bond_style      harmonic
angle_style     harmonic
dihedral_style  fourier
improper_style  cvff
special_bonds   amber
pair_modify     mix arithmetic
read_data       temp.lmps
  orthogonal box = (-125.529 -125.529 -125.529) to (125.529 125.529 125.529)
  reading atoms ...
  913 atoms
  reading velocities ...
  913 velocities
  scanning bonds ...
  scanning angles ...
  scanning dihedrals ...
  scanning impropers ...
  reading bonds ...
  997 bonds
  reading angles ...
  1753 angles
  reading dihedrals ...
  2668 dihedrals
  reading impropers ...
  282 impropers
################################################################################

min_style cg
minimize 1e-05 1e-05 10000 100000
PPPM initialization ...
  G vector (1/distance) = 0.0903936
  grid = 20 20 20
  stencil order = 5
  estimated absolute RMS force accuracy = 0.0357677
  estimated relative force accuracy = 0.000107713
  3d grid and FFT values/proc = 2250 800
  update every 1 steps, delay 0 steps, check yes
Step Temp E_pair E_mol TotEng Press
0    3269.7369    655.15834     1644.279    11188.213    23.157915
Loop time of 0.451129 on 16 procs for 34 steps with 913 atoms

Minimization stats:
  Stopping criterion = linesearch alpha is zero
  Energy initial, next-to-last, final =
  Force two-norm initial, final = 81.3149 46.9425
  Force max component initial, final = 15.9197 6.26779
  Final line search alpha, max atom move = 3.32804e-12 2.08594e-11
  Iterations, force evaluations = 34 127

timestep        1
fix             pysimm_md all nvt temp 300 300 100
run             5000
PPPM initialization ...
  G vector (1/distance) = 0.0903936
  grid = 20 20 20
  stencil order = 5
  estimated absolute RMS force accuracy = 0.0357677
  estimated relative force accuracy = 0.000107713
  3d grid and FFT values/proc = 2250 800
Step Temp E_pair E_mol TotEng Press
34    3269.7369    636.38373    1598.8667    11124.026    23.460827
Loop time of 6.96425 on 16 procs for 5000 steps with 913 atoms

unfix pysimm_md
write_dump all custom pysimm.dump.tmp id q x y z vx vy vz
quit

################################################################################
##################################    Init    ##################################
################################################################################
units           real
atom_style      full
pair_style      lj/cut/coul/long 12.0  12.0
kspace_style    pppm 1e-4
bond_style      harmonic
angle_style     harmonic
dihedral_style  fourier
improper_style  cvff
special_bonds   amber
pair_modify     mix arithmetic
read_data       temp.lmps
  orthogonal box = (-127.943 -127.943 -127.943) to (127.943 127.943 127.943)
  reading atoms ...
  972 atoms
  reading velocities ...
  972 velocities
  scanning bonds ...
  scanning angles ...
  scanning dihedrals ...
  scanning impropers ...
  reading bonds ...
  1061 bonds
  reading angles ...
  1867 angles
  reading dihedrals ...
  2834 dihedrals
  reading impropers ...
  298 impropers
################################################################################

min_style cg
minimize 1e-05 1e-05 10000 100000
PPPM initialization ...
  G vector (1/distance) = 0.101815
  grid = 24 24 24
  stencil order = 5
  estimated absolute RMS force accuracy = 0.0257693
  estimated relative force accuracy = 7.76036e-05
  3d grid and FFT values/proc = 3179 1152
  update every 1 steps, delay 0 steps, check yes
Step Temp E_pair E_mol TotEng Press
0    3263.5695    745.67999    1735.7904    11927.437    25.777709
Loop time of 0.243168 on 16 procs for 12 steps with 972 atoms

Minimization stats:
  Stopping criterion = linesearch alpha is zero
  Energy initial, next-to-last, final =
  Force two-norm initial, final = 65.5879 48.0014
  Force max component initial, final = 8.56927 5.26322
  Final line search alpha, max atom move = 3.87078e-12 2.03728e-11
  Iterations, force evaluations = 12 83

timestep        1
fix             pysimm_md all nvt temp 300 300 100
run             5000
PPPM initialization ...
  G vector (1/distance) = 0.101815
  grid = 24 24 24
  stencil order = 5
  estimated absolute RMS force accuracy = 0.0257693
  estimated relative force accuracy = 7.76036e-05
  3d grid and FFT values/proc = 3179 1152
Step Temp E_pair E_mol TotEng Press
12    3263.5695    744.82522    1717.8598    11908.651    26.027103
Loop time of 5.71722 on 16 procs for 5000 steps with 972 atoms

unfix pysimm_md
write_dump all custom pysimm.dump.tmp id q x y z vx vy vz
quit

################################################################################
##################################    Init    ##################################
################################################################################
units           real
atom_style      full
pair_style      lj/cut/coul/long 12.0  12.0
kspace_style    pppm 1e-4
bond_style      harmonic
angle_style     harmonic
dihedral_style  fourier
improper_style  cvff
special_bonds   amber
pair_modify     mix arithmetic
read_data       temp.lmps
  orthogonal box = (-130.27 -130.27 -130.27) to (130.27 130.27 130.27)
  reading atoms ...
  1031 atoms
  reading velocities ...
  1031 velocities
  scanning bonds ...
  scanning angles ...
  scanning dihedrals ...
  scanning impropers ...
  reading bonds ...
  1125 bonds
  reading angles ...
  1981 angles
  reading dihedrals ...
  3000 dihedrals
  reading impropers ...
  314 impropers
################################################################################

min_style cg
minimize 1e-05 1e-05 10000 100000
PPPM initialization ...
  G vector (1/distance) = 0.10052
  grid = 24 24 24
  stencil order = 5
  estimated absolute RMS force accuracy = 0.0264788
  estimated relative force accuracy = 7.974e-05
  3d grid and FFT values/proc = 3179 1152
  update every 1 steps, delay 0 steps, check yes
Step Temp E_pair E_mol TotEng Press
0    1634.7587    799.84476    1726.0457    7544.9827    12.343574
Loop time of 0.510648 on 16 procs for 53 steps with 1031 atoms

Minimization stats:
  Stopping criterion = linesearch alpha is zero
  Energy initial, next-to-last, final =
  Force two-norm initial, final = 81.5176 47.1658
  Force max component initial, final = 9.84786 5.90059
  Final line search alpha, max atom move = 4.70386e-12 2.77556e-11
  Iterations, force evaluations = 53 163

timestep        1
fix             pysimm_md all nvt temp 300 300 100
run             5000
PPPM initialization ...
  G vector (1/distance) = 0.10052
  grid = 24 24 24
  stencil order = 5
  estimated absolute RMS force accuracy = 0.0264788
  estimated relative force accuracy = 7.974e-05
  3d grid and FFT values/proc = 3179 1152
Step Temp E_pair E_mol TotEng Press
53    1634.7587    781.87259    1644.4673    7445.4321    12.295369
Loop time of 6.45983 on 16 procs for 5000 steps with 1031 atoms

unfix pysimm_md
write_dump all custom pysimm.dump.tmp id q x y z vx vy vz
quit

################################################################################
##################################    Init    ##################################
################################################################################
units           real
atom_style      full
pair_style      lj/cut/coul/long 12.0  12.0
kspace_style    pppm 1e-4
bond_style      harmonic
angle_style     harmonic
dihedral_style  fourier
improper_style  cvff
special_bonds   amber
pair_modify     mix arithmetic
read_data       temp.lmps
  orthogonal box = (-132.517 -132.517 -132.517) to (132.517 132.517 132.517)
  reading atoms ...
  1081 atoms
  reading velocities ...
  1081 velocities
  scanning bonds ...
  scanning angles ...
  scanning dihedrals ...
  scanning impropers ...
  reading bonds ...
  1180 bonds
  reading angles ...
  2077 angles
  reading dihedrals ...
  3152 dihedrals
  reading impropers ...
  331 impropers
################################################################################

min_style cg
minimize 1e-05 1e-05 10000 100000
PPPM initialization ...
  G vector (1/distance) = 0.0992985
  grid = 24 24 24
  stencil order = 5
  estimated absolute RMS force accuracy = 0.027662
  estimated relative force accuracy = 8.33032e-05
  3d grid and FFT values/proc = 3179 1152
  update every 1 steps, delay 0 steps, check yes
Step Temp E_pair E_mol TotEng Press
0    1775.0995    847.40258    1861.3033    8423.2392    12.286162
Loop time of 0.759014 on 16 procs for 73 steps with 1081 atoms

Minimization stats:
  Stopping criterion = linesearch alpha is zero
  Energy initial, next-to-last, final =
  Force two-norm initial, final = 80.4814 44.1441
  Force max component initial, final = 8.16549 4.94914
  Final line search alpha, max atom move = 3.96867e-12 1.96415e-11
  Iterations, force evaluations = 73 205

timestep        1
fix             pysimm_md all nvt temp 300 300 100
run             5000
PPPM initialization ...
  G vector (1/distance) = 0.0992985
  grid = 24 24 24
  stencil order = 5
  estimated absolute RMS force accuracy = 0.027662
  estimated relative force accuracy = 8.33032e-05
  3d grid and FFT values/proc = 3179 1152
Step Temp E_pair E_mol TotEng Press
73    1775.0995    797.80703    1765.2893    8277.6296    12.561737
Loop time of 7.36782 on 16 procs for 5000 steps with 1081 atoms

unfix pysimm_md
write_dump all custom pysimm.dump.tmp id q x y z vx vy vz
quit

################################################################################
##################################    Init    ##################################
################################################################################
units           real
atom_style      full
pair_style      lj/cut/coul/long 12.0  12.0
kspace_style    pppm 1e-4
bond_style      harmonic
angle_style     harmonic
dihedral_style  fourier
improper_style  cvff
special_bonds   amber
pair_modify     mix arithmetic
read_data       temp.lmps
  orthogonal box = (-135.651 -135.651 -135.651) to (135.651 135.651 135.651)
  reading atoms ...
  1113 atoms
  reading velocities ...
  1113 velocities
  scanning bonds ...
  scanning angles ...
  scanning dihedrals ...
  scanning impropers ...
  reading bonds ...
  1217 bonds
  reading angles ...
  2138 angles
  reading dihedrals ...
  3278 dihedrals
  reading impropers ...
  350 impropers
################################################################################

min_style cg
minimize 1e-05 1e-05 10000 100000
PPPM initialization ...
  G vector (1/distance) = 0.0976403
  grid = 24 24 24
  stencil order = 5
  estimated absolute RMS force accuracy = 0.0299083
  estimated relative force accuracy = 9.00681e-05
  3d grid and FFT values/proc = 3179 1152
  update every 1 steps, delay 0 steps, check yes
Step Temp E_pair E_mol TotEng Press
0    1554.6783     865.0165    2104.8365    8123.0842     10.64402
Loop time of 0.559894 on 16 procs for 53 steps with 1113 atoms

Minimization stats:
  Stopping criterion = linesearch alpha is zero
  Energy initial, next-to-last, final =
  Force two-norm initial, final = 89.5077 52.6497
  Force max component initial, final = 10.3673 6.64917
  Final line search alpha, max atom move = 3.07572e-12 2.0451e-11
  Iterations, force evaluations = 53 223

timestep        1
fix             pysimm_md all nvt temp 300 300 100
run             5000
PPPM initialization ...
  G vector (1/distance) = 0.0976403
  grid = 24 24 24
  stencil order = 5
  estimated absolute RMS force accuracy = 0.0299083
  estimated relative force accuracy = 9.00681e-05
  3d grid and FFT values/proc = 3179 1152
Step Temp E_pair E_mol TotEng Press
53    1554.6783    840.86177    2029.4789    8023.5718    10.679671
Loop time of 5.85522 on 16 procs for 5000 steps with 1113 atoms

unfix pysimm_md
write_dump all custom pysimm.dump.tmp id q x y z vx vy vz
quit

################################################################################
##################################    Init    ##################################
################################################################################
units           real
atom_style      full
pair_style      lj/cut/coul/long 12.0  12.0
kspace_style    pppm 1e-4
bond_style      harmonic
angle_style     harmonic
dihedral_style  fourier
improper_style  cvff
special_bonds   amber
pair_modify     mix arithmetic
read_data       temp.lmps
  orthogonal box = (-136.794 -136.794 -136.794) to (136.794 136.794 136.794)
  reading atoms ...
  1208 atoms
  reading velocities ...
  1208 velocities
  scanning bonds ...
  scanning angles ...
  scanning dihedrals ...
  scanning impropers ...
  reading bonds ...
  1317 bonds
  reading angles ...
  2323 angles
  reading dihedrals ...
  3498 dihedrals
  reading impropers ...
  362 impropers
################################################################################

min_style cg
minimize 1e-05 1e-05 10000 100000
PPPM initialization ...
  G vector (1/distance) = 0.0970498
  grid = 24 24 24
  stencil order = 5
  estimated absolute RMS force accuracy = 0.0284704
  estimated relative force accuracy = 8.57378e-05
  3d grid and FFT values/proc = 3179 1152
  update every 1 steps, delay 0 steps, check yes
Step Temp E_pair E_mol TotEng Press
0    753.50415     951.8527    1940.4358    5603.2742    5.9100217
Loop time of 0.603143 on 16 procs for 72 steps with 1208 atoms

Minimization stats:
  Stopping criterion = linesearch alpha is zero
  Energy initial, next-to-last, final =
  Force two-norm initial, final = 88.0514 43.9183
  Force max component initial, final = 11.1819 4.07365
  Final line search alpha, max atom move = 5.41724e-12 2.20679e-11
  Iterations, force evaluations = 72 201

timestep        1
fix             pysimm_md all nvt temp 300 300 100
run             5000
PPPM initialization ...
  G vector (1/distance) = 0.0970498
  grid = 24 24 24
  stencil order = 5
  estimated absolute RMS force accuracy = 0.0284704
  estimated relative force accuracy = 8.57378e-05
  3d grid and FFT values/proc = 3179 1152
Step Temp E_pair E_mol TotEng Press
72    753.50415    914.22014    1803.7763    5428.9821    6.2575898
Loop time of 6.21904 on 16 procs for 5000 steps with 1208 atoms

unfix pysimm_md
write_dump all custom pysimm.dump.tmp id q x y z vx vy vz
quit

################################################################################
##################################    Init    ##################################
################################################################################
units           real
atom_style      full
pair_style      lj/cut/coul/long 12.0  12.0
kspace_style    pppm 1e-4
bond_style      harmonic
angle_style     harmonic
dihedral_style  fourier
improper_style  cvff
special_bonds   amber
pair_modify     mix arithmetic
read_data       temp.lmps
  orthogonal box = (-139.828 -139.828 -139.828) to (139.828 139.828 139.828)
  reading atoms ...
  1276 atoms
  reading velocities ...
  1276 velocities
  scanning bonds ...
  scanning angles ...
  scanning dihedrals ...
  scanning impropers ...
  reading bonds ...
  1390 bonds
  reading angles ...
  2456 angles
  reading dihedrals ...
  3680 dihedrals
  reading impropers ...
  377 impropers
################################################################################

min_style cg
minimize 1e-05 1e-05 10000 100000
PPPM initialization ...
  G vector (1/distance) = 0.0955133
  grid = 24 24 24
  stencil order = 5
  estimated absolute RMS force accuracy = 0.0287158
  estimated relative force accuracy = 8.64767e-05
  3d grid and FFT values/proc = 3179 1152
  update every 1 steps, delay 0 steps, check yes
Step Temp E_pair E_mol TotEng Press
0    1920.1225    1042.9233    2174.5115    10514.923    15.542389
Loop time of 0.544644 on 16 procs for 64 steps with 1276 atoms

Minimization stats:
  Stopping criterion = linesearch alpha is zero
  Energy initial, next-to-last, final =
  Force two-norm initial, final = 85.8577 59.5815
  Force max component initial, final = 9.89545 9.99434
  Final line search alpha, max atom move = 2.08661e-12 2.08543e-11
  Iterations, force evaluations = 64 189

timestep        1
fix             pysimm_md all nvt temp 300 300 100
run             5000
PPPM initialization ...
  G vector (1/distance) = 0.0955133
  grid = 24 24 24
  stencil order = 5
  estimated absolute RMS force accuracy = 0.0287158
  estimated relative force accuracy = 8.64767e-05
  3d grid and FFT values/proc = 3179 1152
Step Temp E_pair E_mol TotEng Press
64    1920.1225    1000.9821     2056.491    10354.962    14.451894
Loop time of 6.51473 on 16 procs for 5000 steps with 1276 atoms

unfix pysimm_md
write_dump all custom pysimm.dump.tmp id q x y z vx vy vz
quit

################################################################################
##################################    Init    ##################################
################################################################################
units           real
atom_style      full
pair_style      lj/cut/coul/long 12.0  12.0
kspace_style    pppm 1e-4
bond_style      harmonic
angle_style     harmonic
dihedral_style  fourier
improper_style  cvff
special_bonds   amber
pair_modify     mix arithmetic
read_data       temp.lmps
  orthogonal box = (-141.826 -141.826 -141.826) to (141.826 141.826 141.826)
  reading atoms ...
  1335 atoms
  reading velocities ...
  1335 velocities
  scanning bonds ...
  scanning angles ...
  scanning dihedrals ...
  scanning impropers ...
  reading bonds ...
  1454 bonds
  reading angles ...
  2570 angles
  reading dihedrals ...
  3846 dihedrals
  reading impropers ...
  393 impropers
################################################################################

min_style cg
minimize 1e-05 1e-05 10000 100000
PPPM initialization ...
  G vector (1/distance) = 0.094526
  grid = 24 24 24
  stencil order = 5
  estimated absolute RMS force accuracy = 0.0293234
  estimated relative force accuracy = 8.83066e-05
  3d grid and FFT values/proc = 3179 1152
  update every 1 steps, delay 0 steps, check yes
Step Temp E_pair E_mol TotEng Press
0    957.11801    970.15916    2125.8726    6901.9164    8.0259205
Loop time of 0.377291 on 16 procs for 10 steps with 1335 atoms

Minimization stats:
  Stopping criterion = linesearch alpha is zero
  Energy initial, next-to-last, final =
  Force two-norm initial, final = 77.4343 59.4579
  Force max component initial, final = 9.07486 9.00593
  Final line search alpha, max atom move = 3.34535e-12 3.0128e-11
  Iterations, force evaluations = 10 79

timestep        1
fix             pysimm_md all nvt temp 300 300 100
run             5000
PPPM initialization ...
  G vector (1/distance) = 0.094526
  grid = 24 24 24
  stencil order = 5
  estimated absolute RMS force accuracy = 0.0293234
  estimated relative force accuracy = 8.83066e-05
  3d grid and FFT values/proc = 3179 1152
Step Temp E_pair E_mol TotEng Press
10    957.11801    967.63193    2111.8395    6885.3561    8.0341707
Loop time of 8.84402 on 16 procs for 5000 steps with 1335 atoms

unfix pysimm_md
write_dump all custom pysimm.dump.tmp id q x y z vx vy vz
quit

################################################################################
##################################    Init    ##################################
################################################################################
units           real
atom_style      full
pair_style      lj/cut/coul/long 12.0  12.0
kspace_style    pppm 1e-4
bond_style      harmonic
angle_style     harmonic
dihedral_style  fourier
improper_style  cvff
special_bonds   amber
pair_modify     mix arithmetic
read_data       temp.lmps
  orthogonal box = (-142.749 -142.749 -142.749) to (142.749 142.749 142.749)
  reading atoms ...
  1340 atoms
  reading velocities ...
  1340 velocities
  scanning bonds ...
  scanning angles ...
  scanning dihedrals ...
  scanning impropers ...
  reading bonds ...
  1464 bonds
  reading angles ...
  2575 angles
  reading dihedrals ...
  3926 dihedrals
  reading impropers ...
  415 impropers
################################################################################

min_style cg
minimize 1e-05 1e-05 10000 100000
PPPM initialization ...
  G vector (1/distance) = 0.0940745
  grid = 24 24 24
  stencil order = 5
  estimated absolute RMS force accuracy = 0.0325732
  estimated relative force accuracy = 9.80934e-05
  3d grid and FFT values/proc = 3179 1152
  update every 1 steps, delay 0 steps, check yes
Step Temp E_pair E_mol TotEng Press
0    625.52867    964.24671    2417.7713    5878.6935    4.5006207
Loop time of 0.345012 on 16 procs for 17 steps with 1340 atoms

Minimization stats:
  Stopping criterion = linesearch alpha is zero
  Energy initial, next-to-last, final =
  Force two-norm initial, final = 93.9278 57.048
  Force max component initial, final = 14.6982 7.65137
  Final line search alpha, max atom move = 3.2337e-12 2.47422e-11
  Iterations, force evaluations = 17 93

timestep        1
fix             pysimm_md all nvt temp 300 300 100
run             5000
PPPM initialization ...
  G vector (1/distance) = 0.0940745
  grid = 24 24 24
  stencil order = 5
  estimated absolute RMS force accuracy = 0.0325732
  estimated relative force accuracy = 9.80934e-05
  3d grid and FFT values/proc = 3179 1152
Step Temp E_pair E_mol TotEng Press
17    625.52867    963.31205    2386.9305     5846.918    4.7485545
Loop time of 6.76095 on 16 procs for 5000 steps with 1340 atoms

unfix pysimm_md
write_dump all custom pysimm.dump.tmp id q x y z vx vy vz
quit

################################################################################
##################################    Init    ##################################
################################################################################
units           real
atom_style      full
pair_style      lj/cut/coul/long 12.0  12.0
kspace_style    pppm 1e-4
bond_style      harmonic
angle_style     harmonic
dihedral_style  fourier
improper_style  cvff
special_bonds   amber
pair_modify     mix arithmetic
read_data       temp.lmps
  orthogonal box = (-144.628 -144.628 -144.628) to (144.628 144.628 144.628)
  reading atoms ...
  1399 atoms
  reading velocities ...
  1399 velocities
  scanning bonds ...
  scanning angles ...
  scanning dihedrals ...
  scanning impropers ...
  reading bonds ...
  1528 bonds
  reading angles ...
  2689 angles
  reading dihedrals ...
  4092 dihedrals
  reading impropers ...
  431 impropers
################################################################################

min_style cg
minimize 1e-05 1e-05 10000 100000
PPPM initialization ...
  G vector (1/distance) = 0.093172
  grid = 24 24 24
  stencil order = 5
  estimated absolute RMS force accuracy = 0.0331002
  estimated relative force accuracy = 9.96804e-05
  3d grid and FFT values/proc = 3179 1152
  update every 1 steps, delay 0 steps, check yes
Step Temp E_pair E_mol TotEng Press
0    1337.5324    1631.1942    3987.2163    11192.139    9.9748257
Loop time of 0.460651 on 16 procs for 55 steps with 1399 atoms

Minimization stats:
  Stopping criterion = energy tolerance
  Energy initial, next-to-last, final =
  Force two-norm initial, final = 129.87 59.048
  Force max component initial, final = 25.8936 17.941
  Final line search alpha, max atom move = 0.00399409 0.0716581
  Iterations, force evaluations = 55 112

timestep        1
fix             pysimm_md all nvt temp 300 300 100
run             5000
PPPM initialization ...
  G vector (1/distance) = 0.093172
  grid = 24 24 24
  stencil order = 5
  estimated absolute RMS force accuracy = 0.0331002
  estimated relative force accuracy = 9.96804e-05
  3d grid and FFT values/proc = 3179 1152
Step Temp E_pair E_mol TotEng Press
55    1337.5324    1610.7404    3752.4205    10936.889    10.930073
Loop time of 9.53082 on 16 procs for 5000 steps with 1399 atoms

unfix pysimm_md
write_dump all custom pysimm.dump.tmp id q x y z vx vy vz
quit

################################################################################
##################################    Init    ##################################
################################################################################
units           real
atom_style      full
pair_style      lj/cut/coul/long 12.0  12.0
kspace_style    pppm 1e-4
bond_style      harmonic
angle_style     harmonic
dihedral_style  fourier
improper_style  cvff
special_bonds   amber
pair_modify     mix arithmetic
read_data       temp.lmps
  orthogonal box = (-147.505 -147.505 -147.505) to (147.505 147.505 147.505)
  reading atoms ...
  1476 atoms
  reading velocities ...
  1476 velocities
  scanning bonds ...
  scanning angles ...
  scanning dihedrals ...
  scanning impropers ...
  reading bonds ...
  1610 bonds
  reading angles ...
  2840 angles
  reading dihedrals ...
  4288 dihedrals
  reading impropers ...
  445 impropers
################################################################################

min_style cg
minimize 1e-05 1e-05 10000 100000
PPPM initialization ...
  G vector (1/distance) = 0.0918214
  grid = 24 24 24
  stencil order = 5
  estimated absolute RMS force accuracy = 0.0327933
  estimated relative force accuracy = 9.87559e-05
  3d grid and FFT values/proc = 3179 1152
  update every 1 steps, delay 0 steps, check yes
Step Temp E_pair E_mol TotEng Press
0    1305.5344    1120.5922    2535.0464     9395.675    7.9716087
Loop time of 0.527867 on 16 procs for 17 steps with 1476 atoms

Minimization stats:
  Stopping criterion = linesearch alpha is zero
  Energy initial, next-to-last, final =
  Force two-norm initial, final = 92.6682 62.4777
  Force max component initial, final = 8.10489 5.25607
  Final line search alpha, max atom move = 1.90544e-12 1.00151e-11
  Iterations, force evaluations = 17 95

timestep        1
fix             pysimm_md all nvt temp 300 300 100
run             5000
PPPM initialization ...
  G vector (1/distance) = 0.0918214
  grid = 24 24 24
  stencil order = 5
  estimated absolute RMS force accuracy = 0.0327933
  estimated relative force accuracy = 9.87559e-05
  3d grid and FFT values/proc = 3179 1152
Step Temp E_pair E_mol TotEng Press
17    1305.5344    1128.4679     2495.312    9363.8164    8.4509336
Loop time of 14.6954 on 16 procs for 5000 steps with 1476 atoms

unfix pysimm_md
write_dump all custom pysimm.dump.tmp id q x y z vx vy vz
quit

################################################################################
##################################    Init    ##################################
################################################################################
units           real
atom_style      full
pair_style      lj/cut/coul/long 12.0  12.0
kspace_style    pppm 1e-4
bond_style      harmonic
angle_style     harmonic
dihedral_style  fourier
improper_style  cvff
special_bonds   amber
pair_modify     mix arithmetic
read_data       temp.lmps
  orthogonal box = (-149.304 -149.304 -149.304) to (149.304 149.304 149.304)
  reading atoms ...
  1481 atoms
  reading velocities ...
  1481 velocities
  scanning bonds ...
  scanning angles ...
  scanning dihedrals ...
  scanning impropers ...
  reading bonds ...
  1620 bonds
  reading angles ...
  2846 angles
  reading dihedrals ...
  4370 dihedrals
  reading impropers ...
  467 impropers
################################################################################

min_style cg
minimize 1e-05 1e-05 10000 100000
PPPM initialization ...
  G vector (1/distance) = 0.0909954
  grid = 24 24 24
  stencil order = 5
  estimated absolute RMS force accuracy = 0.0359756
  estimated relative force accuracy = 0.000108339
  3d grid and FFT values/proc = 3179 1152
  update every 1 steps, delay 0 steps, check yes
Step Temp E_pair E_mol TotEng Press
0    654.95257    1091.0768    2870.6256    6851.0905    4.7794726
Loop time of 0.582296 on 16 procs for 24 steps with 1481 atoms

Minimization stats:
  Stopping criterion = linesearch alpha is zero
  Energy initial, next-to-last, final =
  Force two-norm initial, final = 98.1381 80.2056
  Force max component initial, final = 14.0354 9.2193
  Final line search alpha, max atom move = 1.31066e-12 1.20834e-11
  Iterations, force evaluations = 24 107

timestep        1
fix             pysimm_md all nvt temp 300 300 100
run             5000
PPPM initialization ...
  G vector (1/distance) = 0.0909954
  grid = 24 24 24
  stencil order = 5
  estimated absolute RMS force accuracy = 0.0359756
  estimated relative force accuracy = 0.000108339
  3d grid and FFT values/proc = 3179 1152
Step Temp E_pair E_mol TotEng Press
24    654.95257    1084.0006    2814.1644     6787.553    4.8914694
Loop time of 10.9327 on 16 procs for 5000 steps with 1481 atoms

unfix pysimm_md
write_dump all custom pysimm.dump.tmp id q x y z vx vy vz
quit

################################################################################
##################################    Init    ##################################
################################################################################
units           real
atom_style      full
pair_style      lj/cut/coul/long 12.0  12.0
kspace_style    pppm 1e-4
bond_style      harmonic
angle_style     harmonic
dihedral_style  fourier
improper_style  cvff
special_bonds   amber
pair_modify     mix arithmetic
read_data       temp.lmps
  orthogonal box = (-149.989 -149.989 -149.989) to (149.989 149.989 149.989)
  reading atoms ...
  1621 atoms
  reading velocities ...
  1621 velocities
  scanning bonds ...
  scanning angles ...
  scanning dihedrals ...
  scanning impropers ...
  reading bonds ...
  1765 bonds
  reading angles ...
  3121 angles
  reading dihedrals ...
  4660 dihedrals
  reading impropers ...
  474 impropers
################################################################################

min_style cg
minimize 1e-05 1e-05 10000 100000
PPPM initialization ...
  G vector (1/distance) = 0.090685
  grid = 24 24 24
  stencil order = 5
  estimated absolute RMS force accuracy = 0.0324639
  estimated relative force accuracy = 9.77642e-05
  3d grid and FFT values/proc = 3179 1152
  update every 1 steps, delay 0 steps, check yes
Step Temp E_pair E_mol TotEng Press
0    1409.2095    1216.8324    2709.8939    10731.675    12.028069
Loop time of 0.619939 on 16 procs for 32 steps with 1621 atoms

Minimization stats:
  Stopping criterion = linesearch alpha is zero
  Energy initial, next-to-last, final =
  Force two-norm initial, final = 106.499 87.4367
  Force max component initial, final = 11.9982 10.8358
  Final line search alpha, max atom move = 1.34692e-12 1.4595e-11
  Iterations, force evaluations = 32 123

timestep        1
fix             pysimm_md all nvt temp 300 300 100
run             5000
PPPM initialization ...
  G vector (1/distance) = 0.090685
  grid = 24 24 24
  stencil order = 5
  estimated absolute RMS force accuracy = 0.0324639
  estimated relative force accuracy = 9.77642e-05
  3d grid and FFT values/proc = 3179 1152
Step Temp E_pair E_mol TotEng Press
32    1409.2095    1205.7793    2589.6786    10600.407    11.279061
Loop time of 10.6946 on 16 procs for 5000 steps with 1621 atoms

unfix pysimm_md
write_dump all custom pysimm.dump.tmp id q x y z vx vy vz
quit

################################################################################
##################################    Init    ##################################
################################################################################
units           real
atom_style      full
pair_style      lj/cut/coul/long 12.0  12.0
kspace_style    pppm 1e-4
bond_style      harmonic
angle_style     harmonic
dihedral_style  fourier
improper_style  cvff
special_bonds   amber
pair_modify     mix arithmetic
read_data       temp.lmps
  orthogonal box = (-151.694 -151.694 -151.694) to (151.694 151.694 151.694)
  reading atoms ...
  1599 atoms
  reading velocities ...
  1599 velocities
  scanning bonds ...
  scanning angles ...
  scanning dihedrals ...
  scanning impropers ...
  reading bonds ...
  1748 bonds
  reading angles ...
  3073 angles
  reading dihedrals ...
  4700 dihedrals
  reading impropers ...
  499 impropers
################################################################################

min_style cg
minimize 1e-05 1e-05 10000 100000
PPPM initialization ...
  G vector (1/distance) = 0.092699
  grid = 25 25 25
  stencil order = 5
  estimated absolute RMS force accuracy = 0.0342058
  estimated relative force accuracy = 0.00010301
  3d grid and FFT values/proc = 3888 1250
  update every 1 steps, delay 0 steps, check yes
Loop time of 0.419967 on 16 procs for 27 steps with 1599 atoms

Minimization stats:
  Stopping criterion = linesearch alpha is zero
  Energy initial, next-to-last, final =
  Force two-norm initial, final = 110.091 81.1353
  Force max component initial, final = 13.333 7.84836
  Final line search alpha, max atom move = 1.88967e-12 1.48308e-11
  Iterations, force evaluations = 27 113

timestep        1
fix             pysimm_md all nvt temp 300 300 100
run             5000
PPPM initialization ...
  G vector (1/distance) = 0.092699
  grid = 25 25 25
  stencil order = 5
  estimated absolute RMS force accuracy = 0.0342058
  estimated relative force accuracy = 0.00010301
  3d grid and FFT values/proc = 3888 1250
Loop time of 8.32887 on 16 procs for 5000 steps with 1599 atoms

unfix pysimm_md
write_dump all custom pysimm.dump.tmp id q x y z vx vy vz
quit

################################################################################
##################################    Init    ##################################
################################################################################
units           real
atom_style      full
pair_style      lj/cut/coul/long 12.0  12.0
kspace_style    pppm 1e-4
bond_style      harmonic
angle_style     harmonic
dihedral_style  fourier
improper_style  cvff
special_bonds   amber
pair_modify     mix arithmetic
read_data       temp.lmps
  orthogonal box = (-153.361 -153.361 -153.361) to (153.361 153.361 153.361)
  reading atoms ...
  1676 atoms
  reading velocities ...
  1676 velocities
  scanning bonds ...
  scanning angles ...
  scanning dihedrals ...
  scanning impropers ...
  reading bonds ...
  1830 bonds
  reading angles ...
  3223 angles
  reading dihedrals ...
  4894 dihedrals
  reading impropers ...
  513 impropers
################################################################################

min_style cg
minimize 1e-05 1e-05 10000 100000
PPPM initialization ...
  G vector (1/distance) = 0.0919503
  grid = 25 25 25
  stencil order = 5
  estimated absolute RMS force accuracy = 0.0338458
  estimated relative force accuracy = 0.000101926
  3d grid and FFT values/proc = 3888 1250
  update every 1 steps, delay 0 steps, check yes
Loop time of 0.581638 on 16 procs for 33 steps with 1676 atoms

Minimization stats:
  Stopping criterion = linesearch alpha is zero
  Energy initial, next-to-last, final =
  Force two-norm initial, final = 95.0053 71.6372
  Force max component initial, final = 13.7638 7.78447
  Final line search alpha, max atom move = 1.80001e-12 1.40121e-11
  Iterations, force evaluations = 33 125

timestep        1
fix             pysimm_md all nvt temp 300 300 100
run             5000
PPPM initialization ...
  G vector (1/distance) = 0.0919503
  grid = 25 25 25
  stencil order = 5
  estimated absolute RMS force accuracy = 0.0338458
  estimated relative force accuracy = 0.000101926
  3d grid and FFT values/proc = 3888 1250
Loop time of 9.933 on 16 procs for 5000 steps with 1676 atoms

unfix pysimm_md
write_dump all custom pysimm.dump.tmp id q x y z vx vy vz
quit

################################################################################
##################################    Init    ##################################
################################################################################
units           real
atom_style      full
pair_style      lj/cut/coul/long 12.0  12.0
kspace_style    pppm 1e-4
bond_style      harmonic
angle_style     harmonic
dihedral_style  fourier
improper_style  cvff
special_bonds   amber
pair_modify     mix arithmetic
read_data       temp.lmps
  orthogonal box = (-154.992 -154.992 -154.992) to (154.992 154.992 154.992)
  reading atoms ...
  1735 atoms
  reading velocities ...
  1735 velocities
  scanning bonds ...
  scanning angles ...
  scanning dihedrals ...
  scanning impropers ...
  reading bonds ...
  1894 bonds
  reading angles ...
  3337 angles
  reading dihedrals ...
  5060 dihedrals
  reading impropers ...
  529 impropers
################################################################################

min_style cg
minimize 1e-05 1e-05 10000 100000
PPPM initialization ...
  G vector (1/distance) = 0.0912286
  grid = 25 25 25
  stencil order = 5
  estimated absolute RMS force accuracy = 0.0342829
  estimated relative force accuracy = 0.000103242
  3d grid and FFT values/proc = 3888 1250
  update every 1 steps, delay 0 steps, check yes
Loop time of 0.716656 on 16 procs for 33 steps with 1735 atoms

Minimization stats:
  Stopping criterion = linesearch alpha is zero
  Energy initial, next-to-last, final =
  Force two-norm initial, final = 103.859 65.5975
  Force max component initial, final = 16.1937 7.41634
  Final line search alpha, max atom move = 2.35128e-12 1.74379e-11
  Iterations, force evaluations = 33 124

timestep        1
fix             pysimm_md all nvt temp 300 300 100
run             5000
PPPM initialization ...
  G vector (1/distance) = 0.0912286
  grid = 25 25 25
  stencil order = 5
  estimated absolute RMS force accuracy = 0.0342829
  estimated relative force accuracy = 0.000103242
  3d grid and FFT values/proc = 3888 1250
Loop time of 9.6184 on 16 procs for 5000 steps with 1735 atoms

unfix pysimm_md
write_dump all custom pysimm.dump.tmp id q x y z vx vy vz
quit

################################################################################
##################################    Init    ##################################
################################################################################
units           real
atom_style      full
pair_style      lj/cut/coul/long 12.0  12.0
kspace_style    pppm 1e-4
bond_style      harmonic
angle_style     harmonic
dihedral_style  fourier
improper_style  cvff
special_bonds   amber
pair_modify     mix arithmetic
read_data       temp.lmps
  orthogonal box = (-157.709 -157.709 -157.709) to (157.709 157.709 157.709)
  reading atoms ...
  1857 atoms
  reading velocities ...
  1857 velocities
  scanning bonds ...
  scanning angles ...
  scanning dihedrals ...
  scanning impropers ...
  reading bonds ...
  2021 bonds
  reading angles ...
  3578 angles
  reading dihedrals ...
  5326 dihedrals
  reading impropers ...
  538 impropers
################################################################################

min_style cg
minimize 1e-05 1e-05 10000 100000
PPPM initialization ...
  G vector (1/distance) = 0.0873185
  grid = 24 24 24
  stencil order = 5
  estimated absolute RMS force accuracy = 0.0344658
  estimated relative force accuracy = 0.000103793
  3d grid and FFT values/proc = 3179 1152
  update every 1 steps, delay 0 steps, check yes
Loop time of 0.432144 on 16 procs for 15 steps with 1857 atoms

Minimization stats:
  Stopping criterion = linesearch alpha is zero
  Energy initial, next-to-last, final =
  Force two-norm initial, final = 107.781 71.066
  Force max component initial, final = 18.3954 8.63828
  Final line search alpha, max atom move = 1.40396e-12 1.21278e-11
  Iterations, force evaluations = 15 91

timestep        1
fix             pysimm_md all nvt temp 300 300 100
run             5000
PPPM initialization ...
  G vector (1/distance) = 0.0873185
  grid = 24 24 24
  stencil order = 5
  estimated absolute RMS force accuracy = 0.0344658
  estimated relative force accuracy = 0.000103793
  3d grid and FFT values/proc = 3179 1152
Loop time of 9.49332 on 16 procs for 5000 steps with 1857 atoms

unfix pysimm_md
write_dump all custom pysimm.dump.tmp id q x y z vx vy vz
quit

################################################################################
##################################    Init    ##################################
################################################################################
units           real
atom_style      full
pair_style      lj/cut/coul/long 12.0  12.0
kspace_style    pppm 1e-4
bond_style      harmonic
angle_style     harmonic
dihedral_style  fourier
improper_style  cvff
special_bonds   amber
pair_modify     mix arithmetic
read_data       temp.lmps
  orthogonal box = (-159.286 -159.286 -159.286) to (159.286 159.286 159.286)
  reading atoms ...
  1817 atoms
  reading velocities ...
  1817 velocities
  scanning bonds ...
  scanning angles ...
  scanning dihedrals ...
  scanning impropers ...
  reading bonds ...
  1986 bonds
  reading angles ...
  3494 angles
  reading dihedrals ...
  5338 dihedrals
  reading impropers ...
  565 impropers
################################################################################

min_style cg
minimize 1e-05 1e-05 10000 100000
PPPM initialization ...
  G vector (1/distance) = 0.094641
  grid = 27 27 27
  stencil order = 5
  estimated absolute RMS force accuracy = 0.0319361
  estimated relative force accuracy = 9.61746e-05
  3d grid and FFT values/proc = 4332 1458
  update every 1 steps, delay 0 steps, check yes
Loop time of 0.504164 on 16 procs for 19 steps with 1817 atoms

Minimization stats:
  Stopping criterion = linesearch alpha is zero
  Energy initial, next-to-last, final =
  Force two-norm initial, final = 101.965 67.6902
  Force max component initial, final = 10.577 6.28997
  Final line search alpha, max atom move = 1.67011e-12 1.05049e-11
  Iterations, force evaluations = 19 99

timestep        1
fix             pysimm_md all nvt temp 300 300 100
run             5000
PPPM initialization ...
  G vector (1/distance) = 0.094641
  grid = 27 27 27
  stencil order = 5
  estimated absolute RMS force accuracy = 0.0319361
  estimated relative force accuracy = 9.61746e-05
  3d grid and FFT values/proc = 4332 1458
Loop time of 11.5589 on 16 procs for 5000 steps with 1817 atoms

unfix pysimm_md
write_dump all custom pysimm.dump.tmp id q x y z vx vy vz
quit

################################################################################
##################################    Init    ##################################
################################################################################
units           real
atom_style      full
pair_style      lj/cut/coul/long 12.0  12.0
kspace_style    pppm 1e-4
bond_style      harmonic
angle_style     harmonic
dihedral_style  fourier
improper_style  cvff
special_bonds   amber
pair_modify     mix arithmetic
read_data       temp.lmps
  orthogonal box = (-159.692 -159.692 -159.692) to (159.692 159.692 159.692)
  reading atoms ...
  1930 atoms
  reading velocities ...
  1930 velocities
  scanning bonds ...
  scanning angles ...
  scanning dihedrals ...
  scanning impropers ...
  reading bonds ...
  2104 bonds
  reading angles ...
  3715 angles
  reading dihedrals ...
  5586 dihedrals
  reading impropers ...
  575 impropers
################################################################################

min_style cg
minimize 1e-05 1e-05 10000 100000
PPPM initialization ...
  G vector (1/distance) = 0.0892091
  grid = 25 25 25
  stencil order = 5
  estimated absolute RMS force accuracy = 0.0347971
  estimated relative force accuracy = 0.00010479
  3d grid and FFT values/proc = 3888 1250
  update every 1 steps, delay 0 steps, check yes
Loop time of 0.485743 on 16 procs for 8 steps with 1930 atoms

Minimization stats:
  Stopping criterion = linesearch alpha is zero
  Energy initial, next-to-last, final =
  Force two-norm initial, final = 93.2209 68.1396
  Force max component initial, final = 9.60054 8.6225
  Final line search alpha, max atom move = 1.78193e-12 1.53647e-11
  Iterations, force evaluations = 8 77

timestep        1
fix             pysimm_md all nvt temp 300 300 100
run             5000
PPPM initialization ...
  G vector (1/distance) = 0.0892091
  grid = 25 25 25
  stencil order = 5
  estimated absolute RMS force accuracy = 0.0347971
  estimated relative force accuracy = 0.00010479
  3d grid and FFT values/proc = 3888 1250
Loop time of 10.8215 on 16 procs for 5000 steps with 1930 atoms

unfix pysimm_md
write_dump all custom pysimm.dump.tmp id q x y z vx vy vz
quit

################################################################################
##################################    Init    ##################################
################################################################################
units           real
atom_style      full
pair_style      lj/cut/coul/long 12.0  12.0
kspace_style    pppm 1e-4
bond_style      harmonic
angle_style     harmonic
dihedral_style  fourier
improper_style  cvff
special_bonds   amber
pair_modify     mix arithmetic
read_data       temp.lmps
  orthogonal box = (-161.199 -161.199 -161.199) to (161.199 161.199 161.199)
  reading atoms ...
  1917 atoms
  reading velocities ...
  1917 velocities
  scanning bonds ...
  scanning angles ...
  scanning dihedrals ...
  scanning impropers ...
  reading bonds ...
  2096 bonds
  reading angles ...
  3685 angles
  reading dihedrals ...
  5640 dihedrals
  reading impropers ...
  599 impropers
################################################################################

min_style cg
minimize 1e-05 1e-05 10000 100000
PPPM initialization ...
  G vector (1/distance) = 0.0938141
  grid = 27 27 27
  stencil order = 5
  estimated absolute RMS force accuracy = 0.0332623
  estimated relative force accuracy = 0.000100168
  3d grid and FFT values/proc = 4332 1458
  update every 1 steps, delay 0 steps, check yes
Loop time of 0.558238 on 16 procs for 31 steps with 1917 atoms

Minimization stats:
  Stopping criterion = linesearch alpha is zero
  Energy initial, next-to-last, final =
  Force two-norm initial, final = 105.849 61.7076
  Force max component initial, final = 17.5323 8.11834
  Final line search alpha, max atom move = 2.91198e-12 2.36405e-11
  Iterations, force evaluations = 31 121

timestep        1
fix             pysimm_md all nvt temp 300 300 100
run             5000
PPPM initialization ...
  G vector (1/distance) = 0.0938141
  grid = 27 27 27
  stencil order = 5
  estimated absolute RMS force accuracy = 0.0332623
  estimated relative force accuracy = 0.000100168
  3d grid and FFT values/proc = 4332 1458
Loop time of 11.2376 on 16 procs for 5000 steps with 1917 atoms

unfix pysimm_md
write_dump all custom pysimm.dump.tmp id q x y z vx vy vz
quit

################################################################################
##################################    Init    ##################################
################################################################################
units           real
atom_style      full
pair_style      lj/cut/coul/long 12.0  12.0
kspace_style    pppm 1e-4
bond_style      harmonic
angle_style     harmonic
dihedral_style  fourier
improper_style  cvff
special_bonds   amber
pair_modify     mix arithmetic
read_data       temp.lmps
  orthogonal box = (-162.677 -162.677 -162.677) to (162.677 162.677 162.677)
  reading atoms ...
  2021 atoms
  reading velocities ...
  2021 velocities
  scanning bonds ...
  scanning angles ...
  scanning dihedrals ...
  scanning impropers ...
  reading bonds ...
  2205 bonds
  reading angles ...
  3889 angles
  reading dihedrals ...
  5876 dihedrals
  reading impropers ...
  610 impropers
################################################################################

min_style cg
minimize 1e-05 1e-05 10000 100000
PPPM initialization ...
  G vector (1/distance) = 0.0931843
  grid = 27 27 27
  stencil order = 5
  estimated absolute RMS force accuracy = 0.032022
  estimated relative force accuracy = 9.64334e-05
  3d grid and FFT values/proc = 4332 1458
  update every 1 steps, delay 0 steps, check yes
Loop time of 1.38347 on 16 procs for 115 steps with 2021 atoms

Minimization stats:
  Stopping criterion = linesearch alpha is zero
  Energy initial, next-to-last, final =
  Force two-norm initial, final = 116.039 52.7813
  Force max component initial, final = 16.144 4.45558
  Final line search alpha, max atom move = 3.56713e-12 1.58936e-11
  Iterations, force evaluations = 115 335

timestep        1
fix             pysimm_md all nvt temp 300 300 100
run             5000
PPPM initialization ...
  G vector (1/distance) = 0.0931843
  grid = 27 27 27
  stencil order = 5
  estimated absolute RMS force accuracy = 0.032022
  estimated relative force accuracy = 9.64334e-05
  3d grid and FFT values/proc = 4332 1458
Loop time of 15.887 on 16 procs for 5000 steps with 2021 atoms

unfix pysimm_md
write_dump all custom pysimm.dump.tmp id q x y z vx vy vz
quit

################################################################################
##################################    Init    ##################################
################################################################################
units           real
atom_style      full
pair_style      lj/cut/coul/long 12.0  12.0
kspace_style    pppm 1e-4
bond_style      harmonic
angle_style     harmonic
dihedral_style  fourier
improper_style  cvff
special_bonds   amber
pair_modify     mix arithmetic
read_data       temp.lmps
  orthogonal box = (-165.302 -165.302 -165.302) to (165.302 165.302 165.302)
  reading atoms ...
  2098 atoms
  reading velocities ...
  2098 velocities
  scanning bonds ...
  scanning angles ...
  scanning dihedrals ...
  scanning impropers ...
  reading bonds ...
  2287 bonds
  reading angles ...
  4040 angles
  reading dihedrals ...
  6072 dihedrals
  reading impropers ...
  624 impropers
################################################################################

min_style cg
minimize 1e-05 1e-05 10000 100000
PPPM initialization ...
  G vector (1/distance) = 0.0920859
  grid = 27 27 27
  stencil order = 5
  estimated absolute RMS force accuracy = 0.0318488
  estimated relative force accuracy = 9.59116e-05
  3d grid and FFT values/proc = 4332 1458
  update every 1 steps, delay 0 steps, check yes
Loop time of 0.867897 on 16 procs for 51 steps with 2098 atoms

Minimization stats:
  Stopping criterion = linesearch alpha is zero
  Energy initial, next-to-last, final =
  Force two-norm initial, final = 113.272 49.3764
  Force max component initial, final = 12.5471 5.09446
  Final line search alpha, max atom move = 3.43355e-12 1.74921e-11
  Iterations, force evaluations = 51 159

timestep        1
fix             pysimm_md all nvt temp 300 300 100
run             5000
PPPM initialization ...
  G vector (1/distance) = 0.0920859
  grid = 27 27 27
  stencil order = 5
  estimated absolute RMS force accuracy = 0.0318488
  estimated relative force accuracy = 9.59116e-05
  3d grid and FFT values/proc = 4332 1458
Loop time of 12.8017 on 16 procs for 5000 steps with 2098 atoms

unfix pysimm_md
write_dump all custom pysimm.dump.tmp id q x y z vx vy vz
quit

################################################################################
##################################    Init    ##################################
################################################################################
units           real
atom_style      full
pair_style      lj/cut/coul/long 12.0  12.0
kspace_style    pppm 1e-4
bond_style      harmonic
angle_style     harmonic
dihedral_style  fourier
improper_style  cvff
special_bonds   amber
pair_modify     mix arithmetic
read_data       temp.lmps
  orthogonal box = (-166.74 -166.74 -166.74) to (166.74 166.74 166.74)
  reading atoms ...
  2139 atoms
  reading velocities ...
  2139 velocities
  scanning bonds ...
  scanning angles ...
  scanning dihedrals ...
  scanning impropers ...
  reading bonds ...
  2333 bonds
  reading angles ...
  4118 angles
  reading dihedrals ...
  6210 dihedrals
  reading impropers ...
  642 impropers
################################################################################

min_style cg
minimize 1e-05 1e-05 10000 100000
PPPM initialization ...
  G vector (1/distance) = 0.0914945
  grid = 27 27 27
  stencil order = 5
  estimated absolute RMS force accuracy = 0.0328366
  estimated relative force accuracy = 9.88864e-05
  3d grid and FFT values/proc = 4332 1458
  update every 1 steps, delay 0 steps, check yes
Loop time of 0.988238 on 16 procs for 56 steps with 2139 atoms

Minimization stats:
  Stopping criterion = linesearch alpha is zero
  Energy initial, next-to-last, final =
  Force two-norm initial, final = 107.385 53.386
  Force max component initial, final = 18.9553 8.89582
  Final line search alpha, max atom move = 2.67724e-12 2.38162e-11
  Iterations, force evaluations = 56 225

timestep        1
fix             pysimm_md all nvt temp 300 300 100
run             5000
PPPM initialization ...
  G vector (1/distance) = 0.0914945
  grid = 27 27 27
  stencil order = 5
  estimated absolute RMS force accuracy = 0.0328366
  estimated relative force accuracy = 9.88864e-05
  3d grid and FFT values/proc = 4332 1458
Loop time of 10.8464 on 16 procs for 5000 steps with 2139 atoms

unfix pysimm_md
write_dump all custom pysimm.dump.tmp id q x y z vx vy vz
quit

################################################################################
##################################    Init    ##################################
################################################################################
units           real
atom_style      full
pair_style      lj/cut/coul/long 12.0  12.0
kspace_style    pppm 1e-4
bond_style      harmonic
angle_style     harmonic
dihedral_style  fourier
improper_style  cvff
special_bonds   amber
pair_modify     mix arithmetic
read_data       temp.lmps
  orthogonal box = (-166.96 -166.96 -166.96) to (166.96 166.96 166.96)
  reading atoms ...
  2171 atoms
  reading velocities ...
  2171 velocities
  scanning bonds ...
  scanning angles ...
  scanning dihedrals ...
  scanning impropers ...
  reading bonds ...
  2370 bonds
  reading angles ...
  4177 angles
  reading dihedrals ...
  6332 dihedrals
  reading impropers ...
  661 impropers
################################################################################

min_style cg
minimize 1e-05 1e-05 10000 100000
PPPM initialization ...
  G vector (1/distance) = 0.0914042
  grid = 27 27 27
  stencil order = 5
  estimated absolute RMS force accuracy = 0.0340476
  estimated relative force accuracy = 0.000102533
  3d grid and FFT values/proc = 4332 1458
  update every 1 steps, delay 0 steps, check yes
Loop time of 0.813198 on 16 procs for 37 steps with 2171 atoms

Minimization stats:
  Stopping criterion = linesearch alpha is zero
  Energy initial, next-to-last, final =
  Force two-norm initial, final = 103.621 70.7352
  Force max component initial, final = 12.8263 6.42568
  Final line search alpha, max atom move = 1.59069e-12 1.02213e-11
  Iterations, force evaluations = 37 135

timestep        1
fix             pysimm_md all nvt temp 300 300 100
run             5000
PPPM initialization ...
  G vector (1/distance) = 0.0914042
  grid = 27 27 27
  stencil order = 5
  estimated absolute RMS force accuracy = 0.0340476
  estimated relative force accuracy = 0.000102533
  3d grid and FFT values/proc = 4332 1458
Loop time of 12.4256 on 16 procs for 5000 steps with 2171 atoms

unfix pysimm_md
write_dump all custom pysimm.dump.tmp id q x y z vx vy vz
quit

################################################################################
##################################    Init    ##################################
################################################################################
units           real
atom_style      full
pair_style      lj/cut/coul/long 12.0  12.0
kspace_style    pppm 1e-4
bond_style      harmonic
angle_style     harmonic
dihedral_style  fourier
improper_style  cvff
special_bonds   amber
pair_modify     mix arithmetic
read_data       temp.lmps
  orthogonal box = (-168.34 -168.34 -168.34) to (168.34 168.34 168.34)
  reading atoms ...
  2221 atoms
  reading velocities ...
  2221 velocities
  scanning bonds ...
  scanning angles ...
  scanning dihedrals ...
  scanning impropers ...
  reading bonds ...
  2425 bonds
  reading angles ...
  4273 angles
  reading dihedrals ...
  6484 dihedrals
  reading impropers ...
  678 impropers
################################################################################

min_style cg
minimize 1e-05 1e-05 10000 100000
PPPM initialization ...
  G vector (1/distance) = 0.0908445
  grid = 27 27 27
  stencil order = 5
  estimated absolute RMS force accuracy = 0.0346968
  estimated relative force accuracy = 0.000104488
  3d grid and FFT values/proc = 4332 1458
  update every 1 steps, delay 0 steps, check yes
Loop time of 1.02064 on 16 procs for 73 steps with 2221 atoms

Minimization stats:
  Stopping criterion = linesearch alpha is zero
  Energy initial, next-to-last, final =
  Force two-norm initial, final = 186.542 88.5294
  Force max component initial, final = 69.6628 21.4586
  Final line search alpha, max atom move = 8.7498e-13 1.87758e-11
  Iterations, force evaluations = 73 207

timestep        1
fix             pysimm_md all nvt temp 300 300 100
run             5000
PPPM initialization ...
  G vector (1/distance) = 0.0908445
  grid = 27 27 27
  stencil order = 5
  estimated absolute RMS force accuracy = 0.0346968
  estimated relative force accuracy = 0.000104488
  3d grid and FFT values/proc = 4332 1458
Loop time of 11.9723 on 16 procs for 5000 steps with 2221 atoms

unfix pysimm_md
write_dump all custom pysimm.dump.tmp id q x y z vx vy vz
quit

################################################################################
##################################    Init    ##################################
################################################################################
units           real
atom_style      full
pair_style      lj/cut/coul/long 12.0  12.0
kspace_style    pppm 1e-4
bond_style      harmonic
angle_style     harmonic
dihedral_style  fourier
improper_style  cvff
special_bonds   amber
pair_modify     mix arithmetic
read_data       temp.lmps
  orthogonal box = (-170.91 -170.91 -170.91) to (170.91 170.91 170.91)
  reading atoms ...
  2280 atoms
  reading velocities ...
  2280 velocities
  scanning bonds ...
  scanning angles ...
  scanning dihedrals ...
  scanning impropers ...
  reading bonds ...
  2489 bonds
  reading angles ...
  4388 angles
  reading dihedrals ...
  6652 dihedrals
  reading impropers ...
  694 impropers
################################################################################

min_style cg
minimize 1e-05 1e-05 10000 100000
PPPM initialization ...
  G vector (1/distance) = 0.0898195
  grid = 27 27 27
  stencil order = 5
  estimated absolute RMS force accuracy = 0.0350931
  estimated relative force accuracy = 0.000105682
  3d grid and FFT values/proc = 4332 1458
  update every 1 steps, delay 0 steps, check yes
Loop time of 0.711903 on 16 procs for 45 steps with 2280 atoms

Minimization stats:
  Stopping criterion = linesearch alpha is zero
  Energy initial, next-to-last, final =
  Force two-norm initial, final = 119.305 51.0663
  Force max component initial, final = 15.0868 6.32573
  Final line search alpha, max atom move = 3.30924e-12 2.09334e-11
  Iterations, force evaluations = 45 149

timestep        1
fix             pysimm_md all nvt temp 300 300 100
run             5000
PPPM initialization ...
  G vector (1/distance) = 0.0898195
  grid = 27 27 27
  stencil order = 5
  estimated absolute RMS force accuracy = 0.0350931
  estimated relative force accuracy = 0.000105682
  3d grid and FFT values/proc = 4332 1458
Loop time of 10.8775 on 16 procs for 5000 steps with 2280 atoms

unfix pysimm_md
write_dump all custom pysimm.dump.tmp id q x y z vx vy vz
quit

################################################################################
##################################    Init    ##################################
################################################################################
units           real
atom_style      full
pair_style      lj/cut/coul/long 12.0  12.0
kspace_style    pppm 1e-4
bond_style      harmonic
angle_style     harmonic
dihedral_style  fourier
improper_style  cvff
special_bonds   amber
pair_modify     mix arithmetic
read_data       temp.lmps
  orthogonal box = (-171.034 -171.034 -171.034) to (171.034 171.034 171.034)
  reading atoms ...
  2321 atoms
  reading velocities ...
  2321 velocities
  scanning bonds ...
  scanning angles ...
  scanning dihedrals ...
  scanning impropers ...
  reading bonds ...
  2535 bonds
  reading angles ...
  4465 angles
  reading dihedrals ...
  6788 dihedrals
  reading impropers ...
  712 impropers
################################################################################

min_style cg
minimize 1e-05 1e-05 10000 100000
PPPM initialization ...
  G vector (1/distance) = 0.0897705
  grid = 27 27 27
  stencil order = 5
  estimated absolute RMS force accuracy = 0.0359589
  estimated relative force accuracy = 0.000108289
  3d grid and FFT values/proc = 4332 1458
  update every 1 steps, delay 0 steps, check yes
Loop time of 0.913909 on 16 procs for 40 steps with 2321 atoms

Minimization stats:
  Stopping criterion = linesearch alpha is zero
  Energy initial, next-to-last, final =
  Force two-norm initial, final = 109.822 71.0481
  Force max component initial, final = 10.4719 9.44502
  Final line search alpha, max atom move = 1.62172e-12 1.53172e-11
  Iterations, force evaluations = 40 138

timestep        1
fix             pysimm_md all nvt temp 300 300 100
run             5000
PPPM initialization ...
  G vector (1/distance) = 0.0897705
  grid = 27 27 27
  stencil order = 5
  estimated absolute RMS force accuracy = 0.0359589
  estimated relative force accuracy = 0.000108289
  3d grid and FFT values/proc = 4332 1458
Loop time of 11.7788 on 16 procs for 5000 steps with 2321 atoms

unfix pysimm_md
write_dump all custom pysimm.dump.tmp id q x y z vx vy vz
quit

################################################################################
##################################    Init    ##################################
################################################################################
units           real
atom_style      full
pair_style      lj/cut/coul/long 12.0  12.0
kspace_style    pppm 1e-4
bond_style      harmonic
angle_style     harmonic
dihedral_style  fourier
improper_style  cvff
special_bonds   amber
pair_modify     mix arithmetic
read_data       temp.lmps
  orthogonal box = (-173.581 -173.581 -173.581) to (173.581 173.581 173.581)
  reading atoms ...
  2398 atoms
  reading velocities ...
  2398 velocities
  scanning bonds ...
  scanning angles ...
  scanning dihedrals ...
  scanning impropers ...
  reading bonds ...
  2617 bonds
  reading angles ...
  4616 angles
  reading dihedrals ...
  6984 dihedrals
  reading impropers ...
  726 impropers
################################################################################

min_style cg
minimize 1e-05 1e-05 10000 100000
PPPM initialization ...
  G vector (1/distance) = 0.0887772
  grid = 27 27 27
  stencil order = 5
  estimated absolute RMS force accuracy = 0.0357354
  estimated relative force accuracy = 0.000107616
  3d grid and FFT values/proc = 4332 1458
  update every 1 steps, delay 0 steps, check yes
Loop time of 0.786579 on 16 procs for 26 steps with 2398 atoms

Minimization stats:
  Stopping criterion = linesearch alpha is zero
  Energy initial, next-to-last, final =
  Force two-norm initial, final = 116.041 94.3846
  Force max component initial, final = 12.8031 12.6933
  Final line search alpha, max atom move = 1.0377e-12 1.31718e-11
  Iterations, force evaluations = 26 113

timestep        1
fix             pysimm_md all nvt temp 300 300 100
run             5000
PPPM initialization ...
  G vector (1/distance) = 0.0887772
  grid = 27 27 27
  stencil order = 5
  estimated absolute RMS force accuracy = 0.0357354
  estimated relative force accuracy = 0.000107616
  3d grid and FFT values/proc = 4332 1458
Loop time of 15.6049 on 16 procs for 5000 steps with 2398 atoms

unfix pysimm_md
write_dump all custom pysimm.dump.tmp id q x y z vx vy vz
quit

################################################################################
##################################    Init    ##################################
################################################################################
units           real
atom_style      full
pair_style      lj/cut/coul/long 12.0  12.0
kspace_style    pppm 1e-4
bond_style      harmonic
angle_style     harmonic
dihedral_style  fourier
improper_style  cvff
special_bonds   amber
pair_modify     mix arithmetic
read_data       temp.lmps
  orthogonal box = (-174.886 -174.886 -174.886) to (174.886 174.886 174.886)
  reading atoms ...
  2457 atoms
  reading velocities ...
  2457 velocities
  scanning bonds ...
  scanning angles ...
  scanning dihedrals ...
  scanning impropers ...
  reading bonds ...
  2681 bonds
  reading angles ...
  4730 angles
  reading dihedrals ...
  7150 dihedrals
  reading impropers ...
  742 impropers
################################################################################

min_style cg
minimize 1e-05 1e-05 10000 100000
PPPM initialization ...
  G vector (1/distance) = 0.0882763
  grid = 27 27 27
  stencil order = 5
  estimated absolute RMS force accuracy = 0.0360482
  estimated relative force accuracy = 0.000108558
  3d grid and FFT values/proc = 4332 1458
  update every 1 steps, delay 0 steps, check yes
Loop time of 1.20667 on 16 procs for 76 steps with 2457 atoms

Minimization stats:
  Stopping criterion = linesearch alpha is zero
  Energy initial, next-to-last, final =
  Force two-norm initial, final = 173.348 76.1478
  Force max component initial, final = 63.3351 29.4089
  Final line search alpha, max atom move = 2.02115e-12 5.94397e-11
  Iterations, force evaluations = 76 237

timestep        1
fix             pysimm_md all nvt temp 300 300 100
run             5000
PPPM initialization ...
  G vector (1/distance) = 0.0882763
  grid = 27 27 27
  stencil order = 5
  estimated absolute RMS force accuracy = 0.0360482
  estimated relative force accuracy = 0.000108558
  3d grid and FFT values/proc = 4332 1458
Loop time of 14.7698 on 16 procs for 5000 steps with 2457 atoms

unfix pysimm_md
write_dump all custom pysimm.dump.tmp id q x y z vx vy vz
quit

################################################################################
##################################    Init    ##################################
################################################################################
units           real
atom_style      full
pair_style      lj/cut/coul/long 12.0  12.0
kspace_style    pppm 1e-4
bond_style      harmonic
angle_style     harmonic
dihedral_style  fourier
improper_style  cvff
special_bonds   amber
pair_modify     mix arithmetic
read_data       temp.lmps
  orthogonal box = (-174.923 -174.923 -174.923) to (174.923 174.923 174.923)
  reading atoms ...
  2507 atoms
  reading velocities ...
  2507 velocities
  scanning bonds ...
  scanning angles ...
  scanning dihedrals ...
  scanning impropers ...
  reading bonds ...
  2736 bonds
  reading angles ...
  4825 angles
  reading dihedrals ...
  7300 dihedrals
  reading impropers ...
  759 impropers
################################################################################

min_style cg
minimize 1e-05 1e-05 10000 100000
PPPM initialization ...
  G vector (1/distance) = 0.095457
  grid = 30 30 30
  stencil order = 5
  estimated absolute RMS force accuracy = 0.0302542
  estimated relative force accuracy = 9.11095e-05
  3d grid and FFT values/proc = 5200 1800
  update every 1 steps, delay 0 steps, check yes
Loop time of 1.0803 on 16 procs for 97 steps with 2507 atoms

Minimization stats:
  Stopping criterion = linesearch alpha is zero
  Energy initial, next-to-last, final =
  Force two-norm initial, final = 174.396 92.168
  Force max component initial, final = 61.2035 49.4877
  Final line search alpha, max atom move = 7.44756e-13 3.68563e-11
  Iterations, force evaluations = 97 255

timestep        1
fix             pysimm_md all nvt temp 300 300 100
run             5000
PPPM initialization ...
  G vector (1/distance) = 0.095457
  grid = 30 30 30
  stencil order = 5
  estimated absolute RMS force accuracy = 0.0302542
  estimated relative force accuracy = 9.11095e-05
  3d grid and FFT values/proc = 5200 1800
Loop time of 12.4243 on 16 procs for 5000 steps with 2507 atoms

unfix pysimm_md
write_dump all custom pysimm.dump.tmp id q x y z vx vy vz
quit

################################################################################
##################################    Init    ##################################
################################################################################
units           real
atom_style      full
pair_style      lj/cut/coul/long 12.0  12.0
kspace_style    pppm 1e-4
bond_style      harmonic
angle_style     harmonic
dihedral_style  fourier
improper_style  cvff
special_bonds   amber
pair_modify     mix arithmetic
read_data       temp.lmps
  orthogonal box = (-176.181 -176.181 -176.181) to (176.181 176.181 176.181)
  reading atoms ...
  2539 atoms
  reading velocities ...
  2539 velocities
  scanning bonds ...
  scanning angles ...
  scanning dihedrals ...
  scanning impropers ...
  reading bonds ...
  2773 bonds
  reading angles ...
  4885 angles
  reading dihedrals ...
  7424 dihedrals
  reading impropers ...
  778 impropers
################################################################################

min_style cg
minimize 1e-05 1e-05 10000 100000
PPPM initialization ...
  G vector (1/distance) = 0.0949573
  grid = 30 30 30
  stencil order = 5
  estimated absolute RMS force accuracy = 0.031269
  estimated relative force accuracy = 9.41657e-05
  3d grid and FFT values/proc = 5200 1800
  update every 1 steps, delay 0 steps, check yes
Loop time of 0.460235 on 16 procs for 17 steps with 2539 atoms

Minimization stats:
  Stopping criterion = energy tolerance
  Energy initial, next-to-last, final =
  Force two-norm initial, final = 119.834 86.3805
  Force max component initial, final = 11.4737 10.9333
  Final line search alpha, max atom move = 1.20413e-11 1.3165e-10
  Iterations, force evaluations = 17 90

timestep        1
fix             pysimm_md all nvt temp 300 300 100
run             5000
PPPM initialization ...
  G vector (1/distance) = 0.0949573
  grid = 30 30 30
  stencil order = 5
  estimated absolute RMS force accuracy = 0.031269
  estimated relative force accuracy = 9.41657e-05
  3d grid and FFT values/proc = 5200 1800
Loop time of 11.0637 on 16 procs for 5000 steps with 2539 atoms

unfix pysimm_md
write_dump all custom pysimm.dump.tmp id q x y z vx vy vz
quit

################################################################################
##################################    Init    ##################################
################################################################################
units           real
atom_style      full
pair_style      lj/cut/coul/long 12.0  12.0
kspace_style    pppm 1e-4
bond_style      harmonic
angle_style     harmonic
dihedral_style  fourier
improper_style  cvff
special_bonds   amber
pair_modify     mix arithmetic
read_data       temp.lmps
  orthogonal box = (-178.689 -178.689 -178.689) to (178.689 178.689 178.689)
  reading atoms ...
  2652 atoms
  reading velocities ...
  2652 velocities
  scanning bonds ...
  scanning angles ...
  scanning dihedrals ...
  scanning impropers ...
  reading bonds ...
  2891 bonds
  reading angles ...
  5108 angles
  reading dihedrals ...
  7676 dihedrals
  reading impropers ...
  788 impropers
################################################################################

min_style cg
minimize 1e-05 1e-05 10000 100000
PPPM initialization ...
  G vector (1/distance) = 0.0939775
  grid = 30 30 30
  stencil order = 5
  estimated absolute RMS force accuracy = 0.0302267
  estimated relative force accuracy = 9.10267e-05
  3d grid and FFT values/proc = 5200 1800
  update every 1 steps, delay 0 steps, check yes
Loop time of 1.19673 on 16 procs for 56 steps with 2652 atoms

Minimization stats:
  Stopping criterion = linesearch alpha is zero
  Energy initial, next-to-last, final =
  Force two-norm initial, final = 269.434 79.9649
  Force max component initial, final = 116.094 51.4018
  Final line search alpha, max atom move = 2.36806e-12 1.21723e-10
  Iterations, force evaluations = 56 173

timestep        1
fix             pysimm_md all nvt temp 300 300 100
run             5000
PPPM initialization ...
  G vector (1/distance) = 0.0939775
  grid = 30 30 30
  stencil order = 5
  estimated absolute RMS force accuracy = 0.0302267
  estimated relative force accuracy = 9.10267e-05
  3d grid and FFT values/proc = 5200 1800
Loop time of 21.1404 on 16 procs for 5000 steps with 2652 atoms

unfix pysimm_md
write_dump all custom pysimm.dump.tmp id q x y z vx vy vz
quit

################################################################################
##################################    Init    ##################################
################################################################################
units           real
atom_style      full
pair_style      lj/cut/coul/long 12.0  12.0
kspace_style    pppm 1e-4
bond_style      harmonic
angle_style     harmonic
dihedral_style  fourier
improper_style  cvff
special_bonds   amber
pair_modify     mix arithmetic
read_data       temp.lmps
  orthogonal box = (-179.922 -179.922 -179.922) to (179.922 179.922 179.922)
  reading atoms ...
  2639 atoms
  reading velocities ...
  2639 velocities
  scanning bonds ...
  scanning angles ...
  scanning dihedrals ...
  scanning impropers ...
  reading bonds ...
  2883 bonds
  reading angles ...
  5078 angles
  reading dihedrals ...
  7730 dihedrals
  reading impropers ...
  812 impropers
################################################################################

min_style cg
minimize 1e-05 1e-05 10000 100000
PPPM initialization ...
  G vector (1/distance) = 0.0935018
  grid = 30 30 30
  stencil order = 5
  estimated absolute RMS force accuracy = 0.0323957
  estimated relative force accuracy = 9.75585e-05
  3d grid and FFT values/proc = 5200 1800
  update every 1 steps, delay 0 steps, check yes
Loop time of 1.18727 on 16 procs for 30 steps with 2639 atoms

Minimization stats:
  Stopping criterion = linesearch alpha is zero
  Energy initial, next-to-last, final =
  Force two-norm initial, final = 122.004 89.2072
  Force max component initial, final = 18.5445 10.962
  Final line search alpha, max atom move = 9.04872e-13 9.91917e-12
  Iterations, force evaluations = 30 121

timestep        1
fix             pysimm_md all nvt temp 300 300 100
run             5000
PPPM initialization ...
  G vector (1/distance) = 0.0935018
  grid = 30 30 30
  stencil order = 5
  estimated absolute RMS force accuracy = 0.0323957
  estimated relative force accuracy = 9.75585e-05
  3d grid and FFT values/proc = 5200 1800
Loop time of 24.2378 on 16 procs for 5000 steps with 2639 atoms

unfix pysimm_md
write_dump all custom pysimm.dump.tmp id q x y z vx vy vz
quit

################################################################################
##################################    Init    ##################################
################################################################################
units           real
atom_style      full
pair_style      lj/cut/coul/long 12.0  12.0
kspace_style    pppm 1e-4
bond_style      harmonic
angle_style     harmonic
dihedral_style  fourier
improper_style  cvff
special_bonds   amber
pair_modify     mix arithmetic
read_data       temp.lmps
  orthogonal box = (-179.853 -179.853 -179.853) to (179.853 179.853 179.853)
  reading atoms ...
  2707 atoms
  reading velocities ...
  2707 velocities
  scanning bonds ...
  scanning angles ...
  scanning dihedrals ...
  scanning impropers ...
  reading bonds ...
  2956 bonds
  reading angles ...
  5209 angles
  reading dihedrals ...
  7908 dihedrals
  reading impropers ...
  827 impropers
################################################################################

min_style cg
minimize 1e-05 1e-05 10000 100000
PPPM initialization ...
  G vector (1/distance) = 0.0935283
  grid = 30 30 30
  stencil order = 5
  estimated absolute RMS force accuracy = 0.0323508
  estimated relative force accuracy = 9.74235e-05
  3d grid and FFT values/proc = 5200 1800
  update every 1 steps, delay 0 steps, check yes
Loop time of 0.876837 on 16 procs for 68 steps with 2707 atoms

Minimization stats:
  Stopping criterion = linesearch alpha is zero
  Energy initial, next-to-last, final =
  Force two-norm initial, final = 167.965 91.2488
  Force max component initial, final = 66.1705 21.2097
  Final line search alpha, max atom move = 1.03893e-12 2.20353e-11
  Iterations, force evaluations = 68 197

timestep        1
fix             pysimm_md all nvt temp 300 300 100
run             5000
PPPM initialization ...
  G vector (1/distance) = 0.0935283
  grid = 30 30 30
  stencil order = 5
  estimated absolute RMS force accuracy = 0.0323508
  estimated relative force accuracy = 9.74235e-05
  3d grid and FFT values/proc = 5200 1800
Loop time of 13.6114 on 16 procs for 5000 steps with 2707 atoms

unfix pysimm_md
write_dump all custom pysimm.dump.tmp id q x y z vx vy vz
quit
